#    Name: 48437
#    Modification time : Tue Aug  8 19:16:03 2017

@<TRIPOS>MOLECULE
48437
   63     0     9     0     0
SMALL
NO_CHARGES


@<TRIPOS>ATOM
      1 N         -21.9370   53.0140   75.8850 N.am      1 SEL1        0.0000 
      2 N         -22.9030   48.0280   71.3620 N.am      1 SEL1        0.0000 
      3 N         -18.9240   52.0230   74.8100 N.am      1 SEL1        0.0000 
      4 N         -17.5030   54.1800   74.4150 N.am      1 SEL1        0.0000 
      5 N         -18.0970   53.9700   79.2110 N.am      1 SEL1        0.0000 
      6 N         -27.4850   53.3720   73.0960 N.am      1 SEL1        0.0000 
      7 N         -28.2550   50.9750   73.3080 N.am      1 SEL1        0.0000 
      8 N         -26.3200   51.9430   74.7370 N.am      1 SEL1        0.0000 
      9 O         -23.6810   45.5770   69.3730 O.2       2 ALL2        0.0000 
     10 O         -19.4800   55.9740   81.2040 O.2       2 ALL2        0.0000 
     11 O         -14.7790   52.1580   83.9730 O.2       2 ALL2        0.0000 
     12 CA        -22.1730   53.0570   72.9050 C.3       3 GLL5        0.0000 
     13 CA        -23.1400   53.3100   71.7960 C.3       3 GLL5        0.0000 
     14 CA        -24.8290   51.8010   72.3750 C.3       3 GLL5        0.0000 
     15 CA        -24.2300   51.3900   71.0700 C.3       3 GLL5        0.0000 
     16 CA        -18.6880   54.9970   78.4270 C.3       3 GLL5        0.0000 
     17 CA        -18.2020   55.9440   80.5420 C.3       3 GLL5        0.0000 
     18 CA        -14.0650   54.9070   80.0290 C.3       3 GLL5        0.0000 
     19 CA        -14.4650   53.3180   81.8280 C.3       3 GLL5        0.0000 
     20 N         -21.6580   52.5080   78.7980 N.am      4 SEP1        0.0000 
     21 N         -23.6180   45.8370   73.3860 N.am      4 SEP1        0.0000 
     22 N         -20.4710   50.7060   76.9370 N.am      4 SEP1        0.0000 
     23 N         -16.7800   50.9190   74.3960 N.am      4 SEP1        0.0000 
     24 N         -14.0420   54.5860   74.4030 N.am      4 SEP1        0.0000 
     25 N         -15.2380   52.8510   77.5610 N.am      4 SEP1        0.0000 
     26 N         -28.8030   53.4020   70.3340 N.am      4 SEP1        0.0000 
     27 N         -30.4430   50.7960   71.9310 N.am      4 SEP1        0.0000 
     28 N         -26.6230   54.8020   76.4380 N.am      4 SEP1        0.0000 
     29 N         -26.0790   49.5910   75.7710 N.am      4 SEP1        0.0000 
     30 O         -21.3710   44.7930   71.0080 O.2       5 ALP2        0.0000 
     31 O         -19.4000   54.5170   84.2010 O.2       5 ALP2        0.0000 
     32 O         -15.6450   51.0610   86.4810 O.2       5 ALP2        0.0000 
     33 CA        -18.7440   52.9930   70.6640 C.3       6 GLP5        0.0000 
     34 CA        -20.1860   51.2040   69.7240 C.3       6 GLP5        0.0000 
     35 CA        -28.6890   51.0130   70.2070 C.3       6 GLP5        0.0000 
     36 CA        -26.3910   47.7080   72.7860 C.3       6 GLP5        0.0000 
     37 CA        -22.9510   55.6550   79.3050 C.3       6 GLP5        0.0000 
     38 CA        -16.0790   55.5720   84.2580 C.3       6 GLP5        0.0000 
     39 CA        -13.2060   51.6980   77.1230 C.3       6 GLP5        0.0000 
     40 CA        -13.5570   57.2180   76.3650 C.3       6 GLP5        0.0000 
     41 N         -21.7975   52.7610   77.3415 N.am      7 SEC1        0.0000 
     42 N         -23.2605   46.9325   72.3740 N.am      7 SEC1        0.0000 
     43 N         -19.6975   51.3645   75.8735 N.am      7 SEC1        0.0000 
     44 N         -17.1415   52.5495   74.4055 N.am      7 SEC1        0.0000 
     45 N         -15.7725   54.3830   74.4090 N.am      7 SEC1        0.0000 
     46 N         -16.6675   53.4105   78.3860 N.am      7 SEC1        0.0000 
     47 N         -28.1440   53.3870   71.7150 N.am      7 SEC1        0.0000 
     48 N         -29.3490   50.8855   72.6195 N.am      7 SEC1        0.0000 
     49 N         -26.4715   53.3725   75.5875 N.am      7 SEC1        0.0000 
     50 N         -26.1995   50.7670   75.2540 N.am      7 SEC1        0.0000 
     51 O         -22.5260   45.1850   70.1905 O.2       8 ALC2        0.0000 
     52 O         -19.4400   55.2455   82.7025 O.2       8 ALC2        0.0000 
     53 O         -15.2120   51.6095   85.2270 O.2       8 ALC2        0.0000 
     54 CA        -20.4585   53.0250   71.7845 C.3       9 GLC5        0.0000 
     55 CA        -21.6630   52.2570   70.7600 C.3       9 GLC5        0.0000 
     56 CA        -26.7590   51.4070   71.2910 C.3       9 GLC5        0.0000 
     57 CA        -25.6100   49.7545   72.5805 C.3       9 GLC5        0.0000 
     58 CA        -22.2080   51.2970   70.3970 C.3       9 GLC5        0.0000 
     59 CA        -20.8195   55.3260   78.8660 C.3       9 GLC5        0.0000 
     60 CA        -17.1405   55.7580   82.4000 C.3       9 GLC5        0.0000 
     61 CA        -13.6355   53.3025   78.5760 C.3       9 GLC5        0.0000 
     62 CA        -13.8110   56.0625   78.1970 C.3       9 GLC5        0.0000 
     63 CA        -15.0110   54.6248   82.8390 C.3       9 GLC5        0.0000 
@<TRIPOS>BOND
@<TRIPOS>SUBSTRUCTURE
     1 SEL1        1 GROUP        1 Z    SEL  0     ROOT SEL Z 0
     2 ALL2        9 GROUP        1 Z    ALL  0     **** ALL Z 1
     3 GLL5       12 GROUP        1 Z    GLL  0     **** GLL Z 4
     4 SEP1       20 GROUP        1 Z    SEP  0     **** SEP Z 7
     5 ALP2       30 GROUP        1 Z    ALP  0     **** ALP Z 8
     6 GLP5       33 GROUP        1 Z    GLP  0     **** GLP Z 11
     7 SEC1       41 GROUP        1 Z    SEC  0     **** SEC Z 14
     8 ALC2       51 GROUP        1 Z    ALC  0     **** ALC Z 15
     9 GLC5       54 GROUP        1 Z    GLC  0     **** GLC Z 18
@<TRIPOS>SET

