4rfl_NDP_3_ligand
  -OEChem-08111718373D

 73 77  0     1  0  0  0  0  0999 V2000
  -13.4809   55.4542   79.4295 H   0  0  0  0  0  0  0  0  0  0  0  0
  -12.4329   53.9340   81.1263 H   0  0  0  0  0  0  0  0  0  0  0  0
  -15.8131   55.6176   79.1707 H   0  0  0  0  0  0  0  0  0  0  0  0
  -16.4832   52.9946   82.1432 H   0  0  0  0  0  0  0  0  0  0  0  0
  -26.0834   48.6221   67.5350 H   0  0  0  0  0  0  0  0  0  0  0  0
  -22.4900   49.6899   72.5565 H   0  0  0  0  0  0  0  0  0  0  0  0
  -24.6531   53.7362   73.1992 H   0  0  0  0  0  0  0  0  0  0  0  0
  -17.5035   56.6870   78.7125 H   0  0  0  0  0  0  0  0  0  0  0  0
  -24.3634   51.3666   73.1461 H   0  0  0  0  0  0  0  0  0  0  0  0
  -17.5355   56.5303   81.0026 H   0  0  0  0  0  0  0  0  0  0  0  0
  -22.9372   54.1509   71.2942 H   0  0  0  0  0  0  0  0  0  0  0  0
  -19.6793   54.8705   78.3896 H   0  0  0  0  0  0  0  0  0  0  0  0
  -24.8479   51.6137   70.3162 H   0  0  0  0  0  0  0  0  0  0  0  0
  -18.1976   53.9608   81.2045 H   0  0  0  0  0  0  0  0  0  0  0  0
  -22.3250   52.1516   73.3014 H   0  0  0  0  0  0  0  0  0  0  0  0
  -21.2329   53.1208   72.5702 H   0  0  0  0  0  0  0  0  0  0  0  0
  -18.0323   55.7918   76.6244 H   0  0  0  0  0  0  0  0  0  0  0  0
  -17.2108   54.4536   77.0729 H   0  0  0  0  0  0  0  0  0  0  0  0
  -24.0044   44.9228   68.6893 H   0  0  0  0  0  0  0  0  0  0  0  0
  -23.0285   45.2870   70.0731 H   0  0  0  0  0  0  0  0  0  0  0  0
  -14.4588   51.5579   84.7061 H   0  0  0  0  0  0  0  0  0  0  0  0
  -15.6919   52.5633   84.0214 H   0  0  0  0  0  0  0  0  0  0  0  0
  -26.3154   53.8055   71.6099 H   0  0  0  0  0  0  0  0  0  0  0  0
  -19.2345   58.1088   79.2438 H   0  0  0  0  0  0  0  0  0  0  0  0
  -19.3634   55.7245   82.1653 H   0  0  0  0  0  0  0  0  0  0  0  0
  -14.0650   54.9070   80.0290 C   0  0  0  0  0  0  0  0  0  0  0  0
  -13.4210   54.0370   81.0120 C   0  0  0  0  0  0  0  0  0  0  0  0
  -15.4440   55.0170   79.8800 C   0  0  0  0  0  0  0  0  0  0  0  0
  -15.8240   53.5060   81.5920 C   0  0  0  0  0  0  0  0  0  0  0  0
  -25.4450   48.4290   68.2800 C   0  0  0  0  0  0  0  0  0  0  0  0
  -22.9920   49.3070   71.7810 C   0  0  0  0  0  0  0  0  0  0  0  0
  -14.4650   53.3180   81.8280 C   0  0  0  0  0  0  0  0  0  0  0  0
  -23.7170   47.8860   70.3020 C   0  0  0  0  0  0  0  0  0  0  0  0
  -24.3010   49.2030   70.0920 C   0  0  0  0  0  0  0  0  0  0  0  0
  -24.1230   46.8450   69.3510 C   0  0  0  0  0  0  0  0  0  0  0  0
  -13.9910   52.4170   82.9340 C   0  0  0  0  0  0  0  0  0  0  0  0
  -24.5450   53.2760   72.3180 C   0  0  1  0  0  0  0  0  0  0  0  0
  -18.3610   56.3220   79.0750 C   0  0  1  0  0  0  0  0  0  0  0  0
  -24.8290   51.8010   72.3750 C   0  0  2  0  0  0  0  0  0  0  0  0
  -18.2020   55.9440   80.5420 C   0  0  2  0  0  0  0  0  0  0  0  0
  -23.1400   53.3100   71.7960 C   0  0  1  0  0  0  0  0  0  0  0  0
  -18.6880   54.9970   78.4270 C   0  0  1  0  0  0  0  0  0  0  0  0
  -24.2300   51.3900   71.0700 C   0  0  2  0  0  0  0  0  0  0  0  0
  -17.7300   54.4840   80.4920 C   0  0  2  0  0  0  0  0  0  0  0  0
  -22.1730   53.0570   72.9050 C   0  0  1  0  0  0  0  0  0  0  0  0
  -18.1090   54.8930   77.0560 C   0  0  1  0  0  0  0  0  0  0  0  0
  -25.1270   49.4120   69.0980 N   0  0  0  0  0  0  0  0  0  0  0  0
  -24.9670   47.2030   68.3900 N   0  0  0  0  0  0  0  0  0  0  0  0
  -22.9030   48.0280   71.3620 N   0  0  0  0  0  0  0  0  0  0  0  0
  -23.8460   49.9900   71.0130 N   0  0  0  0  0  0  0  0  0  0  0  0
  -16.2800   54.3420   80.6590 N   0  3  0  0  0  0  0  0  0  0  0  0
  -23.6810   45.5770   69.3730 N   0  0  0  0  0  0  0  0  0  0  0  0
  -14.7790   52.1580   83.9730 N   0  0  0  0  0  0  0  0  0  0  0  0
  -28.2550   50.9750   73.3080 O   0  5  0  0  0  0  0  0  0  0  0  0
  -26.3200   51.9430   74.7370 O   0  5  0  0  0  0  0  0  0  0  0  0
  -21.2300   55.5670   75.5820 O   0  5  0  0  0  0  0  0  0  0  0  0
  -17.5030   54.1800   74.4150 O   0  5  0  0  0  0  0  0  0  0  0  0
  -12.8530   51.9610   82.8580 O   0  0  0  0  0  0  0  0  0  0  0  0
  -27.4850   53.3720   73.0960 O   0  0  0  0  0  0  0  0  0  0  0  0
  -21.9370   53.0140   75.8850 O   0  0  0  0  0  0  0  0  0  0  0  0
  -18.9240   52.0230   74.8100 O   0  0  0  0  0  0  0  0  0  0  0  0
  -23.0490   52.1620   70.9860 O   0  0  0  0  0  0  0  0  0  0  0  0
  -18.0970   53.9700   79.2110 O   0  0  0  0  0  0  0  0  0  0  0  0
  -25.3630   53.8080   71.3050 O   0  0  0  0  0  0  0  0  0  0  0  0
  -19.4350   57.2250   78.8210 O   0  0  0  0  0  0  0  0  0  0  0  0
  -19.4800   55.9740   81.2040 O   0  0  0  0  0  0  0  0  0  0  0  0
  -26.2060   51.4850   72.3550 O   0  0  0  0  0  0  0  0  0  0  0  0
  -22.4260   54.0670   73.8660 O   0  0  0  0  0  0  0  0  0  0  0  0
  -19.0530   54.0950   76.4040 O   0  0  0  0  0  0  0  0  0  0  0  0
  -20.0820   53.9800   74.2750 O   0  0  0  0  0  0  0  0  0  0  0  0
  -27.1470   51.9760   73.5090 P   0  0  0  0  0  0  0  0  0  0  0  0
  -21.4170   54.1490   75.0680 P   0  0  1  0  0  0  0  0  0  0  0  0
  -18.7600   53.4910   74.9760 P   0  0  1  0  0  0  0  0  0  0  0  0
  1 26  1  0  0  0  0
  2 27  1  0  0  0  0
  3 28  1  0  0  0  0
  4 29  1  0  0  0  0
  5 30  1  0  0  0  0
  6 31  1  0  0  0  0
  7 37  1  0  0  0  0
  8 38  1  0  0  0  0
  9 39  1  0  0  0  0
 10 40  1  0  0  0  0
 11 41  1  0  0  0  0
 12 42  1  0  0  0  0
 13 43  1  0  0  0  0
 14 44  1  0  0  0  0
 15 45  1  0  0  0  0
 16 45  1  0  0  0  0
 17 46  1  0  0  0  0
 18 46  1  0  0  0  0
 19 52  1  0  0  0  0
 20 52  1  0  0  0  0
 21 53  1  0  0  0  0
 22 53  1  0  0  0  0
 23 64  1  0  0  0  0
 24 65  1  0  0  0  0
 25 66  1  0  0  0  0
 26 27  1  0  0  0  0
 26 28  2  0  0  0  0
 27 32  2  0  0  0  0
 28 51  1  0  0  0  0
 29 32  1  0  0  0  0
 29 51  2  0  0  0  0
 30 47  1  0  0  0  0
 30 48  2  0  0  0  0
 31 49  2  0  0  0  0
 31 50  1  0  0  0  0
 32 36  1  0  0  0  0
 33 34  1  0  0  0  0
 33 35  2  0  0  0  0
 33 49  1  0  0  0  0
 34 47  2  0  0  0  0
 34 50  1  0  0  0  0
 35 48  1  0  0  0  0
 35 52  1  0  0  0  0
 36 53  1  0  0  0  0
 36 58  2  0  0  0  0
 37 39  1  0  0  0  0
 37 41  1  0  0  0  0
 37 64  1  0  0  0  0
 38 40  1  0  0  0  0
 38 42  1  0  0  0  0
 38 65  1  0  0  0  0
 39 43  1  0  0  0  0
 39 67  1  0  0  0  0
 40 44  1  0  0  0  0
 40 66  1  0  0  0  0
 41 45  1  0  0  0  0
 41 62  1  0  0  0  0
 42 46  1  0  0  0  0
 42 63  1  0  0  0  0
 43 50  1  0  0  0  0
 43 62  1  0  0  0  0
 44 51  1  0  0  0  0
 44 63  1  0  0  0  0
 45 68  1  0  0  0  0
 46 69  1  0  0  0  0
 54 71  1  0  0  0  0
 55 71  1  0  0  0  0
 56 72  1  0  0  0  0
 57 73  1  0  0  0  0
 59 71  2  0  0  0  0
 60 72  2  0  0  0  0
 61 73  2  0  0  0  0
 67 71  1  0  0  0  0
 68 72  1  0  0  0  0
 69 73  1  0  0  0  0
 70 72  1  0  0  0  0
 70 73  1  0  0  0  0
M  CHG  5  56  -1  57  -1  51   1  54  -1  55  -1
M  END
> <scpdb_id>
4rfl_3

$$$$
