@<TRIPOS>MOLECULE
4rfl_NDP_3_ligand
   73    77     1     0     0
SMALL
NO_CHARGES


@<TRIPOS>ATOM
     1 PA         -21.4170    54.1490    75.0680 P.3          1 NDP401   0.0000
     2 O1A        -21.9370    53.0140    75.8850 O.co2        1 NDP401   0.0000
     3 O2A        -21.2300    55.5670    75.5820 O.co2        1 NDP401  -1.0000
     4 O5B        -22.4260    54.0670    73.8660 O.3          1 NDP401   0.0000
     5 C5B        -22.1730    53.0570    72.9050 C.3          1 NDP401   0.0000
     6 C4B        -23.1400    53.3100    71.7960 C.3          1 NDP401   0.0000
     7 O4B        -23.0490    52.1620    70.9860 O.3          1 NDP401   0.0000
     8 C3B        -24.5450    53.2760    72.3180 C.3          1 NDP401   0.0000
     9 O3B        -25.3630    53.8080    71.3050 O.3          1 NDP401   0.0000
    10 C2B        -24.8290    51.8010    72.3750 C.3          1 NDP401   0.0000
    11 O2B        -26.2060    51.4850    72.3550 O.3          1 NDP401   0.0000
    12 C1B        -24.2300    51.3900    71.0700 C.3          1 NDP401   0.0000
    13 N9A        -23.8460    49.9900    71.0130 N.pl3        1 NDP401   0.0000
    14 C8A        -22.9920    49.3070    71.7810 C.2          1 NDP401   0.0000
    15 N7A        -22.9030    48.0280    71.3620 N.2          1 NDP401   0.0000
    16 C5A        -23.7170    47.8860    70.3020 C.ar         1 NDP401   0.0000
    17 C6A        -24.1230    46.8450    69.3510 C.ar         1 NDP401   0.0000
    18 N6A        -23.6810    45.5770    69.3730 N.pl3        1 NDP401   0.0000
    19 N1A        -24.9670    47.2030    68.3900 N.ar         1 NDP401   0.0000
    20 C2A        -25.4450    48.4290    68.2800 C.ar         1 NDP401   0.0000
    21 N3A        -25.1270    49.4120    69.0980 N.ar         1 NDP401   0.0000
    22 C4A        -24.3010    49.2030    70.0920 C.ar         1 NDP401   0.0000
    23 O3         -20.0820    53.9800    74.2750 O.3          1 NDP401   0.0000
    24 PN         -18.7600    53.4910    74.9760 P.3          1 NDP401   0.0000
    25 O1N        -18.9240    52.0230    74.8100 O.co2        1 NDP401   0.0000
    26 O2N        -17.5030    54.1800    74.4150 O.co2        1 NDP401  -1.0000
    27 O5D        -19.0530    54.0950    76.4040 O.3          1 NDP401   0.0000
    28 C5D        -18.1090    54.8930    77.0560 C.3          1 NDP401   0.0000
    29 C4D        -18.6880    54.9970    78.4270 C.3          1 NDP401   0.0000
    30 O4D        -18.0970    53.9700    79.2110 O.3          1 NDP401   0.0000
    31 C3D        -18.3610    56.3220    79.0750 C.3          1 NDP401   0.0000
    32 O3D        -19.4350    57.2250    78.8210 O.3          1 NDP401   0.0000
    33 C2D        -18.2020    55.9440    80.5420 C.3          1 NDP401   0.0000
    34 O2D        -19.4800    55.9740    81.2040 O.3          1 NDP401   0.0000
    35 C1D        -17.7300    54.4840    80.4920 C.3          1 NDP401   0.0000
    36 N1N        -16.2800    54.3420    80.6590 N.ar         1 NDP401   1.0000
    37 C2N        -15.8240    53.5060    81.5920 C.ar         1 NDP401   0.0000
    38 C3N        -14.4650    53.3180    81.8280 C.ar         1 NDP401   0.0000
    39 C7N        -13.9910    52.4170    82.9340 C.2          1 NDP401   0.0000
    40 O7N        -12.8530    51.9610    82.8580 O.2          1 NDP401   0.0000
    41 N7N        -14.7790    52.1580    83.9730 N.am         1 NDP401   0.0000
    42 C4N        -13.4210    54.0370    81.0120 C.ar         1 NDP401   0.0000
    43 C5N        -14.0650    54.9070    80.0290 C.ar         1 NDP401   0.0000
    44 C6N        -15.4440    55.0170    79.8800 C.ar         1 NDP401   0.0000
    45 P2B        -27.1470    51.9760    73.5090 P.3          1 NDP401   0.0000
    46 O1X        -27.4850    53.3720    73.0960 O.co2        1 NDP401   0.0000
    47 O2X        -28.2550    50.9750    73.3080 O.co2        1 NDP401  -1.0000
    48 O3X        -26.3200    51.9430    74.7370 O.co2        1 NDP401  -1.0000
    49 H5B1       -22.3250    52.1516    73.3014 H            1 NDP401   0.0000
    50 H5B2       -21.2329    53.1208    72.5702 H            1 NDP401   0.0000
    51 H4B        -22.9372    54.1509    71.2942 H            1 NDP401   0.0000
    52 H3B        -24.6531    53.7362    73.1992 H            1 NDP401   0.0000
    53 H5         -26.3154    53.8055    71.6099 H            1 NDP401   0.0000
    54 H2B        -24.3634    51.3666    73.1461 H            1 NDP401   0.0000
    55 H1B        -24.8479    51.6137    70.3162 H            1 NDP401   0.0000
    56 H8A        -22.4900    49.6899    72.5565 H            1 NDP401   0.0000
    57 H6A1       -24.0044    44.9228    68.6893 H            1 NDP401   0.0000
    58 H6A2       -23.0285    45.2870    70.0731 H            1 NDP401   0.0000
    59 H2A        -26.0834    48.6221    67.5350 H            1 NDP401   0.0000
    60 H5D1       -18.0323    55.7918    76.6244 H            1 NDP401   0.0000
    61 H5D2       -17.2108    54.4536    77.0729 H            1 NDP401   0.0000
    62 H4D        -19.6793    54.8705    78.3896 H            1 NDP401   0.0000
    63 H3D        -17.5035    56.6870    78.7125 H            1 NDP401   0.0000
    64 H16        -19.2345    58.1088    79.2438 H            1 NDP401   0.0000
    65 H2D        -17.5355    56.5303    81.0026 H            1 NDP401   0.0000
    66 H18        -19.3634    55.7245    82.1653 H            1 NDP401   0.0000
    67 H1D        -18.1976    53.9608    81.2045 H            1 NDP401   0.0000
    68 H2N        -16.4832    52.9946    82.1432 H            1 NDP401   0.0000
    69 H7N1       -14.4588    51.5579    84.7061 H            1 NDP401   0.0000
    70 H7N2       -15.6919    52.5633    84.0214 H            1 NDP401   0.0000
    71 H4N        -12.4329    53.9340    81.1263 H            1 NDP401   0.0000
    72 H5N        -13.4809    55.4542    79.4295 H            1 NDP401   0.0000
    73 H6N        -15.8131    55.6176    79.1707 H            1 NDP401   0.0000
@<TRIPOS>BOND
     1    1    2      ar
     2    1    3      ar
     3    1    4       1
     4    1   23       1
     5    4    5       1
     6    5    6       1
     7    6    7       1
     8    6    8       1
     9    7   12       1
    10    8    9       1
    11    8   10       1
    12   10   11       1
    13   10   12       1
    14   11   45       1
    15   12   13       1
    16   13   14       1
    17   13   22       1
    18   14   15       2
    19   15   16       1
    20   16   17      ar
    21   16   22      ar
    22   17   18       1
    23   17   19      ar
    24   19   20      ar
    25   20   21      ar
    26   21   22      ar
    27   23   24       1
    28   24   25      ar
    29   24   26      ar
    30   24   27       1
    31   27   28       1
    32   28   29       1
    33   29   30       1
    34   29   31       1
    35   30   35       1
    36   31   32       1
    37   31   33       1
    38   33   34       1
    39   33   35       1
    40   35   36       1
    41   36   37      ar
    42   36   44      ar
    43   37   38      ar
    44   38   39       1
    45   38   42      ar
    46   39   40       2
    47   39   41      am
    48   42   43      ar
    49   43   44      ar
    50   45   46      ar
    51   45   47      ar
    52   45   48      ar
    53   43   72       1
    54    5   49       1
    55    5   50       1
    56    6   51       1
    57    8   52       1
    58    9   53       1
    59   10   54       1
    60   12   55       1
    61   14   56       1
    62   18   57       1
    63   18   58       1
    64   20   59       1
    65   44   73       1
    66   28   60       1
    67   28   61       1
    68   29   62       1
    69   31   63       1
    70   32   64       1
    71   33   65       1
    72   34   66       1
    73   35   67       1
    74   37   68       1
    75   41   69       1
    76   41   70       1
    77   42   71       1
@<TRIPOS>SUBSTRUCTURE
     1 NDP401      1 GROUP             4 C     NDP     0 **** NDP C 401
