#    Name: 10548
#    Modification time : Tue Aug  8 20:02:42 2017

@<TRIPOS>MOLECULE
10548
   62     0     9     0     0
SMALL
NO_CHARGES


@<TRIPOS>ATOM
      1 N          56.4480   31.4750    4.5860 N.am      1 SEL1        0.0000 
      2 O          56.4480   31.4750    4.5860 O.2       2 ALL2        0.0000 
      3 CA         51.9920   39.6160    4.9150 C.3       3 GLL5        0.0000 
      4 CA         49.8920   38.1020    4.5860 C.3       3 GLL5        0.0000 
      5 CA         50.1130   35.5290    4.3560 C.3       3 GLL5        0.0000 
      6 CA         52.4240   34.4320    4.5930 C.3       3 GLL5        0.0000 
      7 CA         53.0940   35.8080    4.3370 C.3       3 GLL5        0.0000 
      8 CA         55.4310   34.6800    4.6120 C.3       3 GLL5        0.0000 
      9 CA         52.9110   31.8810    4.2800 C.3       3 GLL5        0.0000 
     10 CA         54.1820   31.1000    3.8790 C.3       3 GLL5        0.0000 
     11 CA         55.3260   32.1220    3.9740 C.3       3 GLL5        0.0000 
     12 CA         54.6770   32.9800    6.2940 C.3       3 GLL5        0.0000 
     13 CA         52.0480   36.8440    6.4020 C.3       3 GLL5        0.0000 
     14 CA         52.8170   38.3780    4.5130 C.3       3 GLL5        0.0000 
     15 CA         50.7820   36.9140    4.1150 C.3       3 GLL5        0.0000 
     16 N          56.6570   30.1610    7.0710 N.am      4 SEP1        0.0000 
     17 O          58.3010   33.2170    3.2220 O.2       5 ALP2        0.0000 
     18 CA         54.1090   42.7840    6.0460 C.3       6 GLP5        0.0000 
     19 CA         50.2150   39.5190    8.4630 C.3       6 GLP5        0.0000 
     20 CA         46.8340   40.6050    3.7430 C.3       6 GLP5        0.0000 
     21 CA         47.1240   35.6030    7.4620 C.3       6 GLP5        0.0000 
     22 CA         46.3350   34.2660    3.4130 C.3       6 GLP5        0.0000 
     23 CA         50.9450   33.5360    8.7300 C.3       6 GLP5        0.0000 
     24 CA         55.3370   35.7070    0.4800 C.3       6 GLP5        0.0000 
     25 CA         51.3760   30.0040    0.5350 C.3       6 GLP5        0.0000 
     26 CA         49.0060   30.8310    4.4630 C.3       6 GLP5        0.0000 
     27 CA         53.4090   27.5390    2.7650 C.3       6 GLP5        0.0000 
     28 CA         57.9350   28.8120    2.4550 C.3       6 GLP5        0.0000 
     29 CA         54.7990   34.5290   10.1740 C.3       6 GLP5        0.0000 
     30 CA         51.8600   32.0160    8.7390 C.3       6 GLP5        0.0000 
     31 CA         55.4420   29.4060    7.1350 C.3       6 GLP5        0.0000 
     32 CA         54.4240   35.8720    9.9870 C.3       6 GLP5        0.0000 
     33 CA         53.6340   40.6570    1.7530 C.3       6 GLP5        0.0000 
     34 CA         49.1360   37.2840    0.9780 C.3       6 GLP5        0.0000 
     35 CA         47.8800   32.5910    5.8340 C.3       6 GLP5        0.0000 
     36 CA         56.0340   30.6360    0.2890 C.3       6 GLP5        0.0000 
     37 N          56.5525   30.8180    5.8285 N.am      7 SEC1        0.0000 
     38 O          57.3745   32.3460    3.9040 O.2       8 ALC2        0.0000 
     39 CA         53.0505   41.2000    5.4805 C.3       9 GLC5        0.0000 
     40 CA         51.1035   39.5675    6.6890 C.3       9 GLC5        0.0000 
     41 CA         50.0535   38.8105    6.5245 C.3       9 GLC5        0.0000 
     42 CA         48.3630   39.3535    4.1645 C.3       9 GLC5        0.0000 
     43 CA         48.6185   35.5660    5.9090 C.3       9 GLC5        0.0000 
     44 CA         48.2240   34.8975    3.8845 C.3       9 GLC5        0.0000 
     45 CA         51.6845   33.9840    6.6615 C.3       9 GLC5        0.0000 
     46 CA         54.2155   35.7575    2.4085 C.3       9 GLC5        0.0000 
     47 CA         55.3840   35.1935    2.5460 C.3       9 GLC5        0.0000 
     48 CA         52.1435   30.9425    2.4075 C.3       9 GLC5        0.0000 
     49 CA         50.9585   31.3560    4.3715 C.3       9 GLC5        0.0000 
     50 CA         53.7955   29.3195    3.3220 C.3       9 GLC5        0.0000 
     51 CA         56.6305   30.4670    3.2145 C.3       9 GLC5        0.0000 
     52 CA         54.7380   33.7545    8.2340 C.3       9 GLC5        0.0000 
     53 CA         53.2685   32.4980    7.5165 C.3       9 GLC5        0.0000 
     54 CA         55.0595   31.1930    6.7145 C.3       9 GLC5        0.0000 
     55 CA         53.2360   36.3580    8.1945 C.3       9 GLC5        0.0000 
     56 CA         51.4965   35.1900    7.5660 C.3       9 GLC5        0.0000 
     57 CA         51.1315   38.1815    7.4325 C.3       9 GLC5        0.0000 
     58 CA         53.0192   39.8270    3.2335 C.3       9 GLC5        0.0000 
     59 CA         49.6805   36.9013    2.6656 C.3       9 GLC5        0.0000 
     60 CA         49.2253   33.7773    4.9748 C.3       9 GLC5        0.0000 
     61 CA         55.3940   31.1235    2.1078 C.3       9 GLC5        0.0000 
     62 CA         55.0980   30.5085    5.5307 C.3       9 GLC5        0.0000 
@<TRIPOS>BOND
@<TRIPOS>SUBSTRUCTURE
     1 SEL1        1 GROUP        1 Z    SEL  0     ROOT SEL Z 0
     2 ALL2        2 GROUP        1 Z    ALL  0     **** ALL Z 1
     3 GLL5        3 GROUP        1 Z    GLL  0     **** GLL Z 4
     4 SEP1       16 GROUP        1 Z    SEP  0     **** SEP Z 7
     5 ALP2       17 GROUP        1 Z    ALP  0     **** ALP Z 8
     6 GLP5       18 GROUP        1 Z    GLP  0     **** GLP Z 11
     7 SEC1       37 GROUP        1 Z    SEC  0     **** SEC Z 14
     8 ALC2       38 GROUP        1 Z    ALC  0     **** ALC Z 15
     9 GLC5       39 GROUP        1 Z    GLC  0     **** GLC Z 18
@<TRIPOS>SET

