@<TRIPOS>MOLECULE
1xj7_DHT_1_ligand
   51    54     1     0     0
SMALL
NO_CHARGES


@<TRIPOS>ATOM
     1 C1          52.8170    38.3780     4.5130 C.3          1 DHT931   0.0000
     2 C2          51.9920    39.6160     4.9150 C.3          1 DHT931   0.0000
     3 C3          50.5570    39.4130     4.3810 C.2          1 DHT931   0.0000
     4 O3          50.0140    40.3570     3.7970 O.2          1 DHT931   0.0000
     5 C4          49.8920    38.1020     4.5860 C.3          1 DHT931   0.0000
     6 C5          50.7820    36.9140     4.1150 C.3          1 DHT931   0.0000
     7 C6          50.1130    35.5290     4.3560 C.3          1 DHT931   0.0000
     8 C7          51.0280    34.3980     3.8750 C.3          1 DHT931   0.0000
     9 C8          52.4240    34.4320     4.5930 C.3          1 DHT931   0.0000
    10 C9          53.0940    35.8080     4.3370 C.3          1 DHT931   0.0000
    11 C10         52.2120    36.9990     4.8460 C.3          1 DHT931   0.0000
    12 C11         54.4960    35.8030     5.0150 C.3          1 DHT931   0.0000
    13 C12         55.4310    34.6800     4.6120 C.3          1 DHT931   0.0000
    14 C13         54.7790    33.3010     4.7660 C.3          1 DHT931   0.0000
    15 C14         53.3660    33.3330     4.0950 C.3          1 DHT931   0.0000
    16 C15         52.9110    31.8810     4.2800 C.3          1 DHT931   0.0000
    17 C16         54.1820    31.1000     3.8790 C.3          1 DHT931   0.0000
    18 C17         55.3260    32.1220     3.9740 C.3          1 DHT931   0.0000
    19 O17         56.4480    31.4750     4.5860 O.3          1 DHT931   0.0000
    20 C18         54.6770    32.9800     6.2940 C.3          1 DHT931   0.0000
    21 C19         52.0480    36.8440     6.4020 C.3          1 DHT931   0.0000
    22 H1          53.7008    38.4402     4.9767 H            1 DHT931   0.0000
    23 H2          52.9563    38.4159     3.5235 H            1 DHT931   0.0000
    24 H3          52.3928    40.4387     4.5119 H            1 DHT931   0.0000
    25 H4          51.9759    39.7066     5.9108 H            1 DHT931   0.0000
    26 H5          49.0369    38.0896     4.0677 H            1 DHT931   0.0000
    27 H6          49.6933    37.9899     5.5596 H            1 DHT931   0.0000
    28 H7          50.9334    37.0148     3.1317 H            1 DHT931   0.0000
    29 H8          49.2492    35.4892     3.8537 H            1 DHT931   0.0000
    30 H9          49.9356    35.4152     5.3335 H            1 DHT931   0.0000
    31 H10         51.1685    34.4923     2.8894 H            1 DHT931   0.0000
    32 H11         50.5869    33.5212     4.0664 H            1 DHT931   0.0000
    33 H12         52.2849    34.3178     5.5767 H            1 DHT931   0.0000
    34 H13         53.2238    35.9140     3.3511 H            1 DHT931   0.0000
    35 H14         54.3565    35.7438     6.0035 H            1 DHT931   0.0000
    36 H15         54.9452    36.6684     4.7930 H            1 DHT931   0.0000
    37 H16         56.2466    34.7170     5.1894 H            1 DHT931   0.0000
    38 H17         55.6937    34.8071     3.6555 H            1 DHT931   0.0000
    39 H18         53.5042    33.4798     3.1155 H            1 DHT931   0.0000
    40 H19         52.1429    31.6604     3.6788 H            1 DHT931   0.0000
    41 H20         52.6548    31.6975     5.2291 H            1 DHT931   0.0000
    42 H21         54.0997    30.7508     2.9456 H            1 DHT931   0.0000
    43 H22         54.3388    30.3380     4.5073 H            1 DHT931   0.0000
    44 H23         55.5776    32.4263     3.0553 H            1 DHT931   0.0000
    45 H24         57.2938    31.9042     4.2692 H            1 DHT931   0.0000
    46 H25         54.2536    32.0827     6.4186 H            1 DHT931   0.0000
    47 H26         55.5929    32.9750     6.6954 H            1 DHT931   0.0000
    48 H27         54.1194    33.6772     6.7446 H            1 DHT931   0.0000
    49 H28         51.6554    35.9477     6.6082 H            1 DHT931   0.0000
    50 H29         52.9427    36.9250     6.8412 H            1 DHT931   0.0000
    51 H30         51.4415    37.5607     6.7463 H            1 DHT931   0.0000
@<TRIPOS>BOND
     1    1    2       1
     2    1   11       1
     3    2    3       1
     4    3    4       2
     5    3    5       1
     6    5    6       1
     7    6    7       1
     8    6   11       1
     9    7    8       1
    10    8    9       1
    11    9   10       1
    12    9   15       1
    13   10   11       1
    14   10   12       1
    15   11   21       1
    16   12   13       1
    17   13   14       1
    18   14   15       1
    19   14   18       1
    20   14   20       1
    21   15   16       1
    22   16   17       1
    23   17   18       1
    24   18   19       1
    25    1   22       1
    26    1   23       1
    27    2   24       1
    28    2   25       1
    29    5   26       1
    30    5   27       1
    31    6   28       1
    32    7   29       1
    33    7   30       1
    34    8   31       1
    35    8   32       1
    36    9   33       1
    37   10   34       1
    38   12   35       1
    39   12   36       1
    40   13   37       1
    41   13   38       1
    42   15   39       1
    43   16   40       1
    44   16   41       1
    45   17   42       1
    46   17   43       1
    47   18   44       1
    48   19   45       1
    49   20   46       1
    50   20   47       1
    51   20   48       1
    52   21   49       1
    53   21   50       1
    54   21   51       1
@<TRIPOS>SUBSTRUCTURE
     1 DHT931      1 GROUP             4 A     DHT     0 **** DHT A 931
