1xj7_DHT_1_ligand
  -OEChem-08111718373D

 51 54  0     1  0  0  0  0  0999 V2000
   52.3928   40.4387    4.5119 H   0  0  0  0  0  0  0  0  0  0  0  0
   51.9759   39.7066    5.9108 H   0  0  0  0  0  0  0  0  0  0  0  0
   49.0369   38.0896    4.0677 H   0  0  0  0  0  0  0  0  0  0  0  0
   49.6933   37.9899    5.5596 H   0  0  0  0  0  0  0  0  0  0  0  0
   53.7008   38.4402    4.9767 H   0  0  0  0  0  0  0  0  0  0  0  0
   52.9563   38.4159    3.5235 H   0  0  0  0  0  0  0  0  0  0  0  0
   49.2492   35.4892    3.8537 H   0  0  0  0  0  0  0  0  0  0  0  0
   49.9356   35.4152    5.3335 H   0  0  0  0  0  0  0  0  0  0  0  0
   51.1685   34.4923    2.8894 H   0  0  0  0  0  0  0  0  0  0  0  0
   50.5869   33.5212    4.0664 H   0  0  0  0  0  0  0  0  0  0  0  0
   52.1429   31.6604    3.6788 H   0  0  0  0  0  0  0  0  0  0  0  0
   52.6548   31.6975    5.2291 H   0  0  0  0  0  0  0  0  0  0  0  0
   54.3565   35.7438    6.0035 H   0  0  0  0  0  0  0  0  0  0  0  0
   54.9452   36.6684    4.7930 H   0  0  0  0  0  0  0  0  0  0  0  0
   54.0997   30.7508    2.9456 H   0  0  0  0  0  0  0  0  0  0  0  0
   54.3388   30.3380    4.5073 H   0  0  0  0  0  0  0  0  0  0  0  0
   56.2466   34.7170    5.1894 H   0  0  0  0  0  0  0  0  0  0  0  0
   55.6937   34.8071    3.6555 H   0  0  0  0  0  0  0  0  0  0  0  0
   50.9334   37.0148    3.1317 H   0  0  0  0  0  0  0  0  0  0  0  0
   52.2849   34.3178    5.5767 H   0  0  0  0  0  0  0  0  0  0  0  0
   53.5042   33.4798    3.1155 H   0  0  0  0  0  0  0  0  0  0  0  0
   53.2238   35.9140    3.3511 H   0  0  0  0  0  0  0  0  0  0  0  0
   55.5776   32.4263    3.0553 H   0  0  0  0  0  0  0  0  0  0  0  0
   51.6554   35.9477    6.6082 H   0  0  0  0  0  0  0  0  0  0  0  0
   52.9427   36.9250    6.8412 H   0  0  0  0  0  0  0  0  0  0  0  0
   51.4415   37.5607    6.7463 H   0  0  0  0  0  0  0  0  0  0  0  0
   54.2536   32.0827    6.4186 H   0  0  0  0  0  0  0  0  0  0  0  0
   55.5929   32.9750    6.6954 H   0  0  0  0  0  0  0  0  0  0  0  0
   54.1194   33.6772    6.7446 H   0  0  0  0  0  0  0  0  0  0  0  0
   57.2938   31.9042    4.2692 H   0  0  0  0  0  0  0  0  0  0  0  0
   50.5570   39.4130    4.3810 C   0  0  0  0  0  0  0  0  0  0  0  0
   51.9920   39.6160    4.9150 C   0  0  1  0  0  0  0  0  0  0  0  0
   49.8920   38.1020    4.5860 C   0  0  2  0  0  0  0  0  0  0  0  0
   52.8170   38.3780    4.5130 C   0  0  2  0  0  0  0  0  0  0  0  0
   50.1130   35.5290    4.3560 C   0  0  1  0  0  0  0  0  0  0  0  0
   51.0280   34.3980    3.8750 C   0  0  2  0  0  0  0  0  0  0  0  0
   52.9110   31.8810    4.2800 C   0  0  1  0  0  0  0  0  0  0  0  0
   54.4960   35.8030    5.0150 C   0  0  1  0  0  0  0  0  0  0  0  0
   54.1820   31.1000    3.8790 C   0  0  2  0  0  0  0  0  0  0  0  0
   55.4310   34.6800    4.6120 C   0  0  2  0  0  0  0  0  0  0  0  0
   50.7820   36.9140    4.1150 C   0  0  2  0  0  0  0  0  0  0  0  0
   52.4240   34.4320    4.5930 C   0  0  1  0  0  0  0  0  0  0  0  0
   53.3660   33.3330    4.0950 C   0  0  1  0  0  0  0  0  0  0  0  0
   53.0940   35.8080    4.3370 C   0  0  1  0  0  0  0  0  0  0  0  0
   55.3260   32.1220    3.9740 C   0  0  1  0  0  0  0  0  0  0  0  0
   52.2120   36.9990    4.8460 C   0  0  1  0  0  0  0  0  0  0  0  0
   54.7790   33.3010    4.7660 C   0  0  1  0  0  0  0  0  0  0  0  0
   52.0480   36.8440    6.4020 C   0  0  0  0  0  0  0  0  0  0  0  0
   54.6770   32.9800    6.2940 C   0  0  0  0  0  0  0  0  0  0  0  0
   50.0140   40.3570    3.7970 O   0  0  0  0  0  0  0  0  0  0  0  0
   56.4480   31.4750    4.5860 O   0  0  0  0  0  0  0  0  0  0  0  0
  1 32  1  0  0  0  0
  2 32  1  0  0  0  0
  3 33  1  0  0  0  0
  4 33  1  0  0  0  0
  5 34  1  0  0  0  0
  6 34  1  0  0  0  0
  7 35  1  0  0  0  0
  8 35  1  0  0  0  0
  9 36  1  0  0  0  0
 10 36  1  0  0  0  0
 11 37  1  0  0  0  0
 12 37  1  0  0  0  0
 13 38  1  0  0  0  0
 14 38  1  0  0  0  0
 15 39  1  0  0  0  0
 16 39  1  0  0  0  0
 17 40  1  0  0  0  0
 18 40  1  0  0  0  0
 19 41  1  0  0  0  0
 20 42  1  0  0  0  0
 21 43  1  0  0  0  0
 22 44  1  0  0  0  0
 23 45  1  0  0  0  0
 24 48  1  0  0  0  0
 25 48  1  0  0  0  0
 26 48  1  0  0  0  0
 27 49  1  0  0  0  0
 28 49  1  0  0  0  0
 29 49  1  0  0  0  0
 30 51  1  0  0  0  0
 31 32  1  0  0  0  0
 31 33  1  0  0  0  0
 31 50  2  0  0  0  0
 32 34  1  0  0  0  0
 33 41  1  0  0  0  0
 34 46  1  0  0  0  0
 35 36  1  0  0  0  0
 35 41  1  0  0  0  0
 36 42  1  0  0  0  0
 37 39  1  0  0  0  0
 37 43  1  0  0  0  0
 38 40  1  0  0  0  0
 38 44  1  0  0  0  0
 39 45  1  0  0  0  0
 40 47  1  0  0  0  0
 41 46  1  0  0  0  0
 42 43  1  0  0  0  0
 42 44  1  0  0  0  0
 43 47  1  0  0  0  0
 44 46  1  0  0  0  0
 45 47  1  0  0  0  0
 45 51  1  0  0  0  0
 46 48  1  0  0  0  0
 47 49  1  0  0  0  0
M  END
> <scpdb_id>
1xj7_1

$$$$
