#    Name: 12143
#    Modification time : Tue Aug  8 23:53:11 2017

@<TRIPOS>MOLECULE
12143
   63     0     9     0     0
SMALL
NO_CHARGES


@<TRIPOS>ATOM
      1 N           0.4200   34.2210    8.6790 N.am      1 SEL1        0.0000 
      2 O           4.1400   35.5170    5.4320 O.2       2 ALL2        0.0000 
      3 CA         -0.9170   35.2550    5.2040 C.3       3 GLL5        0.0000 
      4 CA         -0.5900   34.3020    6.4430 C.3       3 GLL5        0.0000 
      5 CA          2.7420   35.6420    3.3490 C.3       3 GLL5        0.0000 
      6 CA          1.8780   33.0820    2.2090 C.3       3 GLL5        0.0000 
      7 CA          5.0730   35.2430    2.0080 C.3       3 GLL5        0.0000 
      8 CA          5.3920   34.2040    0.8450 C.3       3 GLL5        0.0000 
      9 CA          2.5360   34.6560    0.2760 C.3       3 GLL5        0.0000 
     10 CA         -0.2770   37.0440    3.6400 C.3       3 GLL5        0.0000 
     11 CA          3.0330   30.9870   -0.3740 C.3       3 GLL5        0.0000 
     12 CA          6.6190   31.0740   -1.5130 C.3       3 GLL5        0.0000 
     13 CA          0.7420   34.0460    2.6910 C.3       3 GLL5        0.0000 
     14 CA          4.3850   32.9330    1.0940 C.3       3 GLL5        0.0000 
     15 N          -1.3850   33.2780   11.1400 N.am      4 SEP1        0.0000 
     16 O           6.0920   33.4490    5.1050 O.2       5 ALP2        0.0000 
     17 CA         -4.5190   33.5130    3.9280 C.3       6 GLP5        0.0000 
     18 CA          2.1900   31.0930    6.3200 C.3       6 GLP5        0.0000 
     19 CA          2.2560   39.1280    0.7360 C.3       6 GLP5        0.0000 
     20 CA          2.8330   29.8980    5.1630 C.3       6 GLP5        0.0000 
     21 CA          5.8700   38.6790    0.8360 C.3       6 GLP5        0.0000 
     22 CA          7.6080   37.6970   -0.7220 C.3       6 GLP5        0.0000 
     23 CA          5.3890   35.1210   -3.2230 C.3       6 GLP5        0.0000 
     24 CA          9.2460   34.4520   -0.5130 C.3       6 GLP5        0.0000 
     25 CA          1.8470   38.5440   -0.9440 C.3       6 GLP5        0.0000 
     26 CA          2.9260   34.8630   -3.5500 C.3       6 GLP5        0.0000 
     27 CA         -0.0840   37.8780   -0.8610 C.3       6 GLP5        0.0000 
     28 CA         -1.3220   34.4010   -0.9650 C.3       6 GLP5        0.0000 
     29 CA          0.4420   28.8660    1.5590 C.3       6 GLP5        0.0000 
     30 CA          2.0390   27.7300   -2.3840 C.3       6 GLP5        0.0000 
     31 CA          0.4570   31.1400   -3.1310 C.3       6 GLP5        0.0000 
     32 CA          8.8120   33.8700   -1.7030 C.3       6 GLP5        0.0000 
     33 CA         -1.1880   31.1760    8.2600 C.3       6 GLP5        0.0000 
     34 CA         -4.0980   35.3870    8.2790 C.3       6 GLP5        0.0000 
     35 CA         -1.3760   31.0600    2.7130 C.3       6 GLP5        0.0000 
     36 CA         -1.3830   33.1110   -0.4580 C.3       6 GLP5        0.0000 
     37 CA          7.3020   31.2980    3.4100 C.3       6 GLP5        0.0000 
     38 CA          8.6820   31.1400    1.3060 C.3       6 GLP5        0.0000 
     39 N          -0.4825   33.7495    9.9095 N.am      7 SEC1        0.0000 
     40 O           5.1160   34.4830    5.2685 O.2       8 ALC2        0.0000 
     41 CA         -2.7180   34.3840    4.5660 C.3       9 GLC5        0.0000 
     42 CA          0.8000   32.6975    6.3815 C.3       9 GLC5        0.0000 
     43 CA          2.4990   37.3850    2.0425 C.3       9 GLC5        0.0000 
     44 CA          2.3555   31.4900    3.6860 C.3       9 GLC5        0.0000 
     45 CA          5.4715   36.9610    1.4220 C.3       9 GLC5        0.0000 
     46 CA          6.5000   35.9505    0.0615 C.3       9 GLC5        0.0000 
     47 CA          5.3905   34.6625   -1.1890 C.3       9 GLC5        0.0000 
     48 CA          7.3190   34.3280    0.1660 C.3       9 GLC5        0.0000 
     49 CA          2.1915   36.6000   -0.3340 C.3       9 GLC5        0.0000 
     50 CA          2.7310   34.7595   -1.6370 C.3       9 GLC5        0.0000 
     51 CA          1.2260   36.2670   -0.2925 C.3       9 GLC5        0.0000 
     52 CA          0.6070   34.5285   -0.3445 C.3       9 GLC5        0.0000 
     53 CA          0.9895   38.0860    2.1880 C.3       9 GLC5        0.0000 
     54 CA          1.7375   29.9265    0.5925 C.3       9 GLC5        0.0000 
     55 CA          2.5360   29.3585   -1.3790 C.3       9 GLC5        0.0000 
     56 CA          1.7450   31.0635   -1.7525 C.3       9 GLC5        0.0000 
     57 CA          7.7155   32.4720   -1.6080 C.3       9 GLC5        0.0000 
     58 CA         -0.7107   32.9425    7.6322 C.3       9 GLC5        0.0000 
     59 CA         -2.2066   35.1671    7.4869 C.3       9 GLC5        0.0000 
     60 CA         -0.0330   32.3120    2.5815 C.3       9 GLC5        0.0000 
     61 CA         -0.0365   33.3375    0.9960 C.3       9 GLC5        0.0000 
     62 CA          6.0953   32.4333    2.1898 C.3       9 GLC5        0.0000 
     63 CA          7.3797   31.0905    0.1930 C.3       9 GLC5        0.0000 
@<TRIPOS>BOND
@<TRIPOS>SUBSTRUCTURE
     1 SEL1        1 GROUP        1 Z    SEL  0     ROOT SEL Z 0
     2 ALL2        2 GROUP        1 Z    ALL  0     **** ALL Z 1
     3 GLL5        3 GROUP        1 Z    GLL  0     **** GLL Z 4
     4 SEP1       15 GROUP        1 Z    SEP  0     **** SEP Z 7
     5 ALP2       16 GROUP        1 Z    ALP  0     **** ALP Z 8
     6 GLP5       17 GROUP        1 Z    GLP  0     **** GLP Z 11
     7 SEC1       39 GROUP        1 Z    SEC  0     **** SEC Z 14
     8 ALC2       40 GROUP        1 Z    ALC  0     **** ALC Z 15
     9 GLC5       41 GROUP        1 Z    GLC  0     **** GLC Z 18
@<TRIPOS>SET

