@<TRIPOS>MOLECULE
2b03_TUD_1_ligand
   78    81     1     0     0
SMALL
NO_CHARGES


@<TRIPOS>ATOM
     1 C1          -0.9170    35.2550     5.2040 C.3          1 TUD126   0.0000
     2 C2          -0.5900    34.3020     6.4430 C.3          1 TUD126   0.0000
     3 C3           0.1230    35.1160     7.5660 C.3          1 TUD126   0.0000
     4 O3           0.4200    34.2210     8.6790 O.3          1 TUD126   0.0000
     5 C4           1.4620    35.7700     7.0500 C.3          1 TUD126   0.0000
     6 C5           1.1720    36.7460     5.8250 C.3          1 TUD126   0.0000
     7 C6           2.4880    37.4510     5.2250 C.3          1 TUD126   0.0000
     8 C7           3.4710    36.4630     4.5270 C.3          1 TUD126   0.0000
     9 O7           4.1400    35.5170     5.4320 O.3          1 TUD126   0.0000
    10 C8           2.7420    35.6420     3.3490 C.3          1 TUD126   0.0000
    11 C9           1.4300    34.8820     3.9320 C.3          1 TUD126   0.0000
    12 C10          0.3790    35.9620     4.6220 C.3          1 TUD126   0.0000
    13 C11          0.7420    34.0460     2.6910 C.3          1 TUD126   0.0000
    14 C12          1.8780    33.0820     2.2090 C.3          1 TUD126   0.0000
    15 C13          3.1610    33.7800     1.5220 C.3          1 TUD126   0.0000
    16 C14          3.7730    34.6040     2.6630 C.3          1 TUD126   0.0000
    17 C15          5.0730    35.2430     2.0080 C.3          1 TUD126   0.0000
    18 C16          5.3920    34.2040     0.8450 C.3          1 TUD126   0.0000
    19 C17          4.3850    32.9330     1.0940 C.3          1 TUD126   0.0000
    20 C18          2.5360    34.6560     0.2760 C.3          1 TUD126   0.0000
    21 C19         -0.2770    37.0440     3.6400 C.3          1 TUD126   0.0000
    22 C20          4.2470    31.9400    -0.1880 C.3          1 TUD126   0.0000
    23 C21          3.0330    30.9870    -0.3740 C.3          1 TUD126   0.0000
    24 C22          5.5360    31.0080    -0.3270 C.3          1 TUD126   0.0000
    25 C23          6.6190    31.0740    -1.5130 C.3          1 TUD126   0.0000
    26 O25          7.6070    28.8920    -1.4230 O.2          1 TUD126   0.0000
    27 C24          7.1070    29.8680    -2.2240 C.2          1 TUD126   0.0000
    28 N26          7.0820    29.7210    -3.4660 N.am         1 TUD126   0.0000
    29 C25          7.5820    28.5080    -4.1170 C.3          1 TUD126   0.0000
    30 C26          7.2430    28.4270    -5.6290 C.3          1 TUD126   0.0000
    31 S27          7.6710    27.2940    -6.4240 S.o2         1 TUD126   0.0000
    32 O28          7.1690    27.5300    -7.8070 O.co2        1 TUD126   0.0000
    33 O29          9.1480    27.2350    -6.3620 O.co2        1 TUD126   0.0000
    34 O30          7.0910    26.0020    -5.8990 O.co2        1 TUD126  -1.0000
    35 H1          -1.5601    35.9601     5.5028 H            1 TUD126   0.0000
    36 H2          -1.3359    34.7071     4.4799 H            1 TUD126   0.0000
    37 H3           0.0080    33.5595     6.1413 H            1 TUD126   0.0000
    38 H4          -1.4418    33.9195     6.8008 H            1 TUD126   0.0000
    39 H5          -0.4908    35.8386     7.8841 H            1 TUD126   0.0000
    40 H6           1.2439    34.5365     9.1497 H            1 TUD126   0.0000
    41 H7           2.0879    35.0483     6.7544 H            1 TUD126   0.0000
    42 H8           1.8813    36.2910     7.7934 H            1 TUD126   0.0000
    43 H9           0.5692    37.4715     6.1571 H            1 TUD126   0.0000
    44 H10          2.9734    37.9013     5.9744 H            1 TUD126   0.0000
    45 H11          2.2008    38.1355     4.5549 H            1 TUD126   0.0000
    46 H12          4.1867    37.0152     4.0995 H            1 TUD126   0.0000
    47 H13          4.7485    34.9244     4.9042 H            1 TUD126   0.0000
    48 H14          2.4428    36.2934     2.6518 H            1 TUD126   0.0000
    49 H15          1.7232    34.2306     4.6318 H            1 TUD126   0.0000
    50 H16          0.4650    34.6647     1.9559 H            1 TUD126   0.0000
    51 H17         -0.0527    33.5285     3.0083 H            1 TUD126   0.0000
    52 H18          1.4805    32.4512     1.5426 H            1 TUD126   0.0000
    53 H19          2.1996    32.5678     3.0041 H            1 TUD126   0.0000
    54 H20          4.0739    33.9644     3.3704 H            1 TUD126   0.0000
    55 H21          5.8243    35.2959     2.6658 H            1 TUD126   0.0000
    56 H22          4.8861    36.1544     1.6415 H            1 TUD126   0.0000
    57 H23          6.3458    33.9077     0.8945 H            1 TUD126   0.0000
    58 H24          5.2172    34.6171    -0.0488 H            1 TUD126   0.0000
    59 H25          4.7100    32.4079     1.8805 H            1 TUD126   0.0000
    60 H26          3.2761    35.1247    -0.2062 H            1 TUD126   0.0000
    61 H27          2.0611    34.0441    -0.3565 H            1 TUD126   0.0000
    62 H28          1.8911    35.3313     0.6338 H            1 TUD126   0.0000
    63 H29          0.4462    37.5730     3.1960 H            1 TUD126   0.0000
    64 H30         -0.8223    36.5758     2.9447 H            1 TUD126   0.0000
    65 H31         -0.8645    37.6588     4.1662 H            1 TUD126   0.0000
    66 H32          4.2526    32.5332    -0.9930 H            1 TUD126   0.0000
    67 H33          3.1438    30.4675    -1.2213 H            1 TUD126   0.0000
    68 H34          2.9832    30.3557     0.3999 H            1 TUD126   0.0000
    69 H35          2.1911    31.5247    -0.4203 H            1 TUD126   0.0000
    70 H36          5.1837    30.0723    -0.3440 H            1 TUD126   0.0000
    71 H37          6.0574    31.1527     0.5140 H            1 TUD126   0.0000
    72 H38          7.4293    31.5116    -1.1231 H            1 TUD126   0.0000
    73 H39          6.2246    31.6676    -2.2145 H            1 TUD126   0.0000
    74 H40          6.7086    30.4554    -4.0327 H            1 TUD126   0.0000
    75 H41          7.1786    27.7152    -3.6601 H            1 TUD126   0.0000
    76 H42          8.5764    28.4816    -4.0145 H            1 TUD126   0.0000
    77 H43          7.6396    29.2404    -6.0545 H            1 TUD126   0.0000
    78 H44          6.2463    28.4658    -5.7006 H            1 TUD126   0.0000
@<TRIPOS>BOND
     1    1    2       1
     2    1   12       1
     3    2    3       1
     4    3    4       1
     5    3    5       1
     6    5    6       1
     7    6    7       1
     8    6   12       1
     9    7    8       1
    10    8    9       1
    11    8   10       1
    12   10   11       1
    13   10   16       1
    14   11   12       1
    15   11   13       1
    16   12   21       1
    17   13   14       1
    18   14   15       1
    19   15   16       1
    20   15   19       1
    21   15   20       1
    22   16   17       1
    23   17   18       1
    24   18   19       1
    25   19   22       1
    26   22   23       1
    27   22   24       1
    28   24   25       1
    29   25   27       1
    30   26   27       2
    31   27   28      am
    32   28   29       1
    33   29   30       1
    34   30   31       1
    35   31   32      ar
    36   31   33      ar
    37   31   34      ar
    38    1   35       1
    39    1   36       1
    40    2   37       1
    41    2   38       1
    42    3   39       1
    43    4   40       1
    44    5   41       1
    45    5   42       1
    46    6   43       1
    47    7   44       1
    48    7   45       1
    49    8   46       1
    50    9   47       1
    51   10   48       1
    52   11   49       1
    53   13   50       1
    54   13   51       1
    55   14   52       1
    56   14   53       1
    57   16   54       1
    58   17   55       1
    59   17   56       1
    60   18   57       1
    61   18   58       1
    62   19   59       1
    63   20   60       1
    64   20   61       1
    65   20   62       1
    66   21   63       1
    67   21   64       1
    68   21   65       1
    69   22   66       1
    70   23   67       1
    71   23   68       1
    72   23   69       1
    73   24   70       1
    74   24   71       1
    75   25   72       1
    76   25   73       1
    77   28   74       1
    78   29   75       1
    79   29   76       1
    80   30   77       1
    81   30   78       1
@<TRIPOS>SUBSTRUCTURE
     1 TUD126      1 GROUP             4 A     TUD     0 **** TUD A 126
