2b03_TUD_1_ligand
  -OEChem-08111718373D

 78 81  0     1  0  0  0  0  0999 V2000
    5.8243   35.2959    2.6658 H   0  0  0  0  0  0  0  0  0  0  0  0
    4.8861   36.1544    1.6415 H   0  0  0  0  0  0  0  0  0  0  0  0
    0.4650   34.6647    1.9559 H   0  0  0  0  0  0  0  0  0  0  0  0
   -0.0527   33.5285    3.0083 H   0  0  0  0  0  0  0  0  0  0  0  0
    6.3458   33.9077    0.8945 H   0  0  0  0  0  0  0  0  0  0  0  0
    5.2172   34.6171   -0.0488 H   0  0  0  0  0  0  0  0  0  0  0  0
    0.0080   33.5595    6.1413 H   0  0  0  0  0  0  0  0  0  0  0  0
   -1.4418   33.9195    6.8008 H   0  0  0  0  0  0  0  0  0  0  0  0
    1.4805   32.4512    1.5426 H   0  0  0  0  0  0  0  0  0  0  0  0
    2.1996   32.5678    3.0041 H   0  0  0  0  0  0  0  0  0  0  0  0
   -1.5601   35.9601    5.5028 H   0  0  0  0  0  0  0  0  0  0  0  0
   -1.3359   34.7071    4.4799 H   0  0  0  0  0  0  0  0  0  0  0  0
    2.0879   35.0483    6.7544 H   0  0  0  0  0  0  0  0  0  0  0  0
    1.8813   36.2910    7.7934 H   0  0  0  0  0  0  0  0  0  0  0  0
    2.9734   37.9013    5.9744 H   0  0  0  0  0  0  0  0  0  0  0  0
    2.2008   38.1355    4.5549 H   0  0  0  0  0  0  0  0  0  0  0  0
    4.0739   33.9644    3.3704 H   0  0  0  0  0  0  0  0  0  0  0  0
    1.7232   34.2306    4.6318 H   0  0  0  0  0  0  0  0  0  0  0  0
    0.5692   37.4715    6.1571 H   0  0  0  0  0  0  0  0  0  0  0  0
    2.4428   36.2934    2.6518 H   0  0  0  0  0  0  0  0  0  0  0  0
    4.7100   32.4079    1.8805 H   0  0  0  0  0  0  0  0  0  0  0  0
   -0.4908   35.8386    7.8841 H   0  0  0  0  0  0  0  0  0  0  0  0
    4.1867   37.0152    4.0995 H   0  0  0  0  0  0  0  0  0  0  0  0
    0.4462   37.5730    3.1960 H   0  0  0  0  0  0  0  0  0  0  0  0
   -0.8223   36.5758    2.9447 H   0  0  0  0  0  0  0  0  0  0  0  0
   -0.8645   37.6588    4.1662 H   0  0  0  0  0  0  0  0  0  0  0  0
    3.2761   35.1247   -0.2062 H   0  0  0  0  0  0  0  0  0  0  0  0
    2.0611   34.0441   -0.3565 H   0  0  0  0  0  0  0  0  0  0  0  0
    1.8911   35.3313    0.6338 H   0  0  0  0  0  0  0  0  0  0  0  0
    3.1438   30.4675   -1.2213 H   0  0  0  0  0  0  0  0  0  0  0  0
    2.9832   30.3557    0.3999 H   0  0  0  0  0  0  0  0  0  0  0  0
    2.1911   31.5247   -0.4203 H   0  0  0  0  0  0  0  0  0  0  0  0
    7.4293   31.5116   -1.1231 H   0  0  0  0  0  0  0  0  0  0  0  0
    6.2246   31.6676   -2.2145 H   0  0  0  0  0  0  0  0  0  0  0  0
    5.1837   30.0723   -0.3440 H   0  0  0  0  0  0  0  0  0  0  0  0
    6.0574   31.1527    0.5140 H   0  0  0  0  0  0  0  0  0  0  0  0
    7.1786   27.7152   -3.6601 H   0  0  0  0  0  0  0  0  0  0  0  0
    8.5764   28.4816   -4.0145 H   0  0  0  0  0  0  0  0  0  0  0  0
    7.6396   29.2404   -6.0545 H   0  0  0  0  0  0  0  0  0  0  0  0
    6.2463   28.4658   -5.7006 H   0  0  0  0  0  0  0  0  0  0  0  0
    4.2526   32.5332   -0.9930 H   0  0  0  0  0  0  0  0  0  0  0  0
    6.7086   30.4554   -4.0327 H   0  0  0  0  0  0  0  0  0  0  0  0
    1.2439   34.5365    9.1497 H   0  0  0  0  0  0  0  0  0  0  0  0
    4.7485   34.9244    4.9042 H   0  0  0  0  0  0  0  0  0  0  0  0
    7.1070   29.8680   -2.2240 C   0  0  0  0  0  0  0  0  0  0  0  0
    5.0730   35.2430    2.0080 C   0  0  1  0  0  0  0  0  0  0  0  0
    0.7420   34.0460    2.6910 C   0  0  1  0  0  0  0  0  0  0  0  0
    5.3920   34.2040    0.8450 C   0  0  2  0  0  0  0  0  0  0  0  0
   -0.5900   34.3020    6.4430 C   0  0  2  0  0  0  0  0  0  0  0  0
    1.8780   33.0820    2.2090 C   0  0  2  0  0  0  0  0  0  0  0  0
   -0.9170   35.2550    5.2040 C   0  0  2  0  0  0  0  0  0  0  0  0
    1.4620   35.7700    7.0500 C   0  0  1  0  0  0  0  0  0  0  0  0
    2.4880   37.4510    5.2250 C   0  0  2  0  0  0  0  0  0  0  0  0
    3.7730   34.6040    2.6630 C   0  0  1  0  0  0  0  0  0  0  0  0
    1.4300   34.8820    3.9320 C   0  0  1  0  0  0  0  0  0  0  0  0
    1.1720   36.7460    5.8250 C   0  0  1  0  0  0  0  0  0  0  0  0
    2.7420   35.6420    3.3490 C   0  0  1  0  0  0  0  0  0  0  0  0
    4.3850   32.9330    1.0940 C   0  0  1  0  0  0  0  0  0  0  0  0
    0.1230   35.1160    7.5660 C   0  0  2  0  0  0  0  0  0  0  0  0
    3.4710   36.4630    4.5270 C   0  0  2  0  0  0  0  0  0  0  0  0
    0.3790   35.9620    4.6220 C   0  0  2  0  0  0  0  0  0  0  0  0
    3.1610   33.7800    1.5220 C   0  0  1  0  0  0  0  0  0  0  0  0
   -0.2770   37.0440    3.6400 C   0  0  0  0  0  0  0  0  0  0  0  0
    2.5360   34.6560    0.2760 C   0  0  0  0  0  0  0  0  0  0  0  0
    3.0330   30.9870   -0.3740 C   0  0  0  0  0  0  0  0  0  0  0  0
    6.6190   31.0740   -1.5130 C   0  0  1  0  0  0  0  0  0  0  0  0
    5.5360   31.0080   -0.3270 C   0  0  1  0  0  0  0  0  0  0  0  0
    7.5820   28.5080   -4.1170 C   0  0  1  0  0  0  0  0  0  0  0  0
    7.2430   28.4270   -5.6290 C   0  0  2  0  0  0  0  0  0  0  0  0
    4.2470   31.9400   -0.1880 C   0  0  2  0  0  0  0  0  0  0  0  0
    7.0820   29.7210   -3.4660 N   0  0  0  0  0  0  0  0  0  0  0  0
    7.0910   26.0020   -5.8990 O   0  5  0  0  0  0  0  0  0  0  0  0
    7.6070   28.8920   -1.4230 O   0  0  0  0  0  0  0  0  0  0  0  0
    7.1690   27.5300   -7.8070 O   0  0  0  0  0  0  0  0  0  0  0  0
    9.1480   27.2350   -6.3620 O   0  0  0  0  0  0  0  0  0  0  0  0
    0.4200   34.2210    8.6790 O   0  0  0  0  0  0  0  0  0  0  0  0
    4.1400   35.5170    5.4320 O   0  0  0  0  0  0  0  0  0  0  0  0
    7.6710   27.2940   -6.4240 S   0  0  1  0  0  0  0  0  0  0  0  0
  1 46  1  0  0  0  0
  2 46  1  0  0  0  0
  3 47  1  0  0  0  0
  4 47  1  0  0  0  0
  5 48  1  0  0  0  0
  6 48  1  0  0  0  0
  7 49  1  0  0  0  0
  8 49  1  0  0  0  0
  9 50  1  0  0  0  0
 10 50  1  0  0  0  0
 11 51  1  0  0  0  0
 12 51  1  0  0  0  0
 13 52  1  0  0  0  0
 14 52  1  0  0  0  0
 15 53  1  0  0  0  0
 16 53  1  0  0  0  0
 17 54  1  0  0  0  0
 18 55  1  0  0  0  0
 19 56  1  0  0  0  0
 20 57  1  0  0  0  0
 21 58  1  0  0  0  0
 22 59  1  0  0  0  0
 23 60  1  0  0  0  0
 24 63  1  0  0  0  0
 25 63  1  0  0  0  0
 26 63  1  0  0  0  0
 27 64  1  0  0  0  0
 28 64  1  0  0  0  0
 29 64  1  0  0  0  0
 30 65  1  0  0  0  0
 31 65  1  0  0  0  0
 32 65  1  0  0  0  0
 33 66  1  0  0  0  0
 34 66  1  0  0  0  0
 35 67  1  0  0  0  0
 36 67  1  0  0  0  0
 37 68  1  0  0  0  0
 38 68  1  0  0  0  0
 39 69  1  0  0  0  0
 40 69  1  0  0  0  0
 41 70  1  0  0  0  0
 42 71  1  0  0  0  0
 43 76  1  0  0  0  0
 44 77  1  0  0  0  0
 45 66  1  0  0  0  0
 45 71  1  0  0  0  0
 45 73  2  0  0  0  0
 46 48  1  0  0  0  0
 46 54  1  0  0  0  0
 47 50  1  0  0  0  0
 47 55  1  0  0  0  0
 48 58  1  0  0  0  0
 49 51  1  0  0  0  0
 49 59  1  0  0  0  0
 50 62  1  0  0  0  0
 51 61  1  0  0  0  0
 52 56  1  0  0  0  0
 52 59  1  0  0  0  0
 53 56  1  0  0  0  0
 53 60  1  0  0  0  0
 54 57  1  0  0  0  0
 54 62  1  0  0  0  0
 55 57  1  0  0  0  0
 55 61  1  0  0  0  0
 56 61  1  0  0  0  0
 57 60  1  0  0  0  0
 58 62  1  0  0  0  0
 58 70  1  0  0  0  0
 59 76  1  0  0  0  0
 60 77  1  0  0  0  0
 61 63  1  0  0  0  0
 62 64  1  0  0  0  0
 65 70  1  0  0  0  0
 66 67  1  0  0  0  0
 67 70  1  0  0  0  0
 68 69  1  0  0  0  0
 68 71  1  0  0  0  0
 69 78  1  0  0  0  0
 72 78  1  0  0  0  0
 74 78  2  0  0  0  0
 75 78  2  0  0  0  0
M  CHG  1  72  -1
M  END
> <scpdb_id>
2b03_1

$$$$
