#    Name: 9629
#    Modification time : Wed Aug  9 00:50:28 2017

@<TRIPOS>MOLECULE
9629
   70     0    12     0     0
SMALL
NO_CHARGES


@<TRIPOS>ATOM
      1 N          -1.8970   10.6050   26.0990 N.am      1 SEL1        0.0000 
      2 O          -2.4570   11.8080   24.1250 O.2       2 ALL2        0.0000 
      3 CA          2.3120   14.0680   24.3150 C.3       3 GLL5        0.0000 
      4 CA          3.8980   13.2920   24.2100 C.3       3 GLL5        0.0000 
      5 CA          4.1260   15.7230   26.1350 C.3       3 GLL5        0.0000 
      6 CA          7.7660   15.2710   24.5720 C.3       3 GLL5        0.0000 
      7 CA          8.1810   10.7080   23.1560 C.3       3 GLL5        0.0000 
      8 CA          3.0410   11.2150   22.9470 C.3       3 GLL5        0.0000 
      9 CA          3.0880    9.6600   25.7080 C.3       3 GLL5        0.0000 
     10 CA         -1.6960    9.5510   28.0950 C.3       3 GLL5        0.0000 
     11 CA          5.4270   11.5070   23.5020 C.3       3 GLL5        0.0000 
     12 CA          4.1400   12.0430   23.5720 C.3       3 GLL5        0.0000 
     13 CA          2.9510    8.1510   25.6090 C.3       3 GLL5        0.0000 
     14 CA          4.7800    7.7670   23.7480 C.3       3 GLL5        0.0000 
     15 CA          6.5020   12.1950   24.0430 C.3       3 GLL5        0.0000 
     16 CZ          5.2097   12.7192   24.1115 C.ar      4 PHL6        0.0000 
     17 N          -4.1020   10.9650   27.8240 N.am      5 SEP1        0.0000 
     18 O          -5.1890   12.0040   24.2720 O.2       6 ALP2        0.0000 
     19 CA          0.8420   13.4350   27.5790 C.3       7 GLP5        0.0000 
     20 CA          3.4440   14.6780   21.0040 C.3       7 GLP5        0.0000 
     21 CA          0.8090   17.3200   26.3700 C.3       7 GLP5        0.0000 
     22 CA         -1.0310   16.4080   22.5430 C.3       7 GLP5        0.0000 
     23 CA          2.2900   12.5150   28.0420 C.3       7 GLP5        0.0000 
     24 CA          4.1730   15.6240   29.6980 C.3       7 GLP5        0.0000 
     25 CA          4.4930   16.7020   21.7830 C.3       7 GLP5        0.0000 
     26 CA          6.0560   19.3230   26.1750 C.3       7 GLP5        0.0000 
     27 CA          5.7200   16.1480   21.6870 C.3       7 GLP5        0.0000 
     28 CA          9.9190   14.1600   21.4750 C.3       7 GLP5        0.0000 
     29 CA          7.7680   18.7020   24.5820 C.3       7 GLP5        0.0000 
     30 CA          7.9150   10.3320   27.6140 C.3       7 GLP5        0.0000 
     31 CA         11.8080    9.4960   23.1810 C.3       7 GLP5        0.0000 
     32 CA          9.7780   12.9190   20.8560 C.3       7 GLP5        0.0000 
     33 CA         -0.5020    9.5150   20.8540 C.3       7 GLP5        0.0000 
     34 CA          5.5240   10.9320   27.8440 C.3       7 GLP5        0.0000 
     35 CA         -3.7290    7.7660   26.1650 C.3       7 GLP5        0.0000 
     36 CA         -2.8220    6.9050   30.0740 C.3       7 GLP5        0.0000 
     37 CA          1.5820   11.6100   29.4800 C.3       7 GLP5        0.0000 
     38 CA          4.7760   12.6650   20.3200 C.3       7 GLP5        0.0000 
     39 CA          6.1060    8.5500   27.7060 C.3       7 GLP5        0.0000 
     40 CZ          4.5872   15.4043   21.3405 C.ar      8 PHP6        0.0000 
     41 N          -2.9995   10.7850   26.9615 N.am      9 SEC1        0.0000 
     42 O          -3.8230   11.9060   24.1985 O.2      10 ALC2        0.0000 
     43 CA          1.5770   13.7515   25.9470 C.3      11 GLC5        0.0000 
     44 CA          2.8780   14.3730   22.6595 C.3      11 GLC5        0.0000 
     45 CA          1.5605   15.6940   25.3425 C.3      11 GLC5        0.0000 
     46 CA          0.6405   15.2380   23.4290 C.3      11 GLC5        0.0000 
     47 CA          3.0940   12.9035   26.1260 C.3      11 GLC5        0.0000 
     48 CA          3.2080   14.1190   27.0885 C.3      11 GLC5        0.0000 
     49 CA          4.1495   15.6735   27.9165 C.3      11 GLC5        0.0000 
     50 CA          4.3095   16.2125   23.9590 C.3      11 GLC5        0.0000 
     51 CA          2.4675   16.5215   26.2525 C.3      11 GLC5        0.0000 
     52 CA          5.0910   17.5230   26.1550 C.3      11 GLC5        0.0000 
     53 CA          6.7430   15.7095   23.1295 C.3      11 GLC5        0.0000 
     54 CA          8.8425   14.7155   23.0235 C.3      11 GLC5        0.0000 
     55 CA          7.7670   16.9865   24.5770 C.3      11 GLC5        0.0000 
     56 CA          8.0480   10.5200   25.3850 C.3      11 GLC5        0.0000 
     57 CA          9.9945   10.1020   23.1685 C.3      11 GLC5        0.0000 
     58 CA          8.9795   11.8135   22.0060 C.3      11 GLC5        0.0000 
     59 CA          1.2695   10.3650   21.9005 C.3      11 GLC5        0.0000 
     60 CA          2.6890   11.0875   26.8750 C.3      11 GLC5        0.0000 
     61 CA          4.3060   10.2960   26.7760 C.3      11 GLC5        0.0000 
     62 CA         -2.7125    8.6585   27.1300 C.3      11 GLC5        0.0000 
     63 CA         -2.2590    8.2280   29.0845 C.3      11 GLC5        0.0000 
     64 CA         -0.0570   10.5805   28.7875 C.3      11 GLC5        0.0000 
     65 CA          5.3702   12.2580   22.0463 C.3      11 GLC5        0.0000 
     66 CA          4.1530   12.3031   21.8695 C.3      11 GLC5        0.0000 
     67 CA          4.6383    8.1828   26.3392 C.3      11 GLC5        0.0000 
     68 CA          5.7037    8.2257   25.6070 C.3      11 GLC5        0.0000 
     69 CA          5.7716   11.6580   25.9544 C.3      11 GLC5        0.0000 
     70 CZ          4.8984   14.0617   22.7260 C.ar     12 PHC6        0.0000 
@<TRIPOS>BOND
@<TRIPOS>SUBSTRUCTURE
     1 SEL1        1 GROUP        1 Z    SEL  0     ROOT SEL Z 0
     2 ALL2        2 GROUP        1 Z    ALL  0     **** ALL Z 1
     3 GLL5        3 GROUP        1 Z    GLL  0     **** GLL Z 4
     4 PHL6       16 GROUP        1 Z    PHL  0     **** PHL Z 6
     5 SEP1       17 GROUP        1 Z    SEP  0     **** SEP Z 7
     6 ALP2       18 GROUP        1 Z    ALP  0     **** ALP Z 8
     7 GLP5       19 GROUP        1 Z    GLP  0     **** GLP Z 11
     8 PHP6       40 GROUP        1 Z    PHP  0     **** PHP Z 13
     9 SEC1       41 GROUP        1 Z    SEC  0     **** SEC Z 14
    10 ALC2       42 GROUP        1 Z    ALC  0     **** ALC Z 15
    11 GLC5       43 GROUP        1 Z    GLC  0     **** GLC Z 18
    12 PHC6       70 GROUP        1 Z    PHC  0     **** PHC Z 20
@<TRIPOS>SET

