@<TRIPOS>MOLECULE
1uyf_PU1_1_ligand
   51    53     1     0     0
SMALL
NO_CHARGES


@<TRIPOS>ATOM
     1 CL           2.3120    14.0680    24.3150 Cl           1 PU11224   0.0000
     2 C13          3.8980    13.2920    24.2100 C.ar         1 PU11224   0.0000
     3 C15          5.0260    13.9110    24.7110 C.ar         1 PU11224   0.0000
     4 O3           5.1190    15.1390    25.3580 O.3          1 PU11224   0.0000
     5 C20          4.1260    15.7230    26.1350 C.3          1 PU11224   0.0000
     6 C17          6.2650    13.3670    24.6310 C.ar         1 PU11224   0.0000
     7 O2           7.3090    14.0870    25.2130 O.3          1 PU11224   0.0000
     8 C19          7.7660    15.2710    24.5720 C.3          1 PU11224   0.0000
     9 C16          6.5020    12.1950    24.0430 C.ar         1 PU11224   0.0000
    10 O1           7.8340    11.7330    24.1060 O.3          1 PU11224   0.0000
    11 C18          8.1810    10.7080    23.1560 C.3          1 PU11224   0.0000
    12 C14          5.4270    11.5070    23.5020 C.ar         1 PU11224   0.0000
    13 C12          4.1400    12.0430    23.5720 C.ar         1 PU11224   0.0000
    14 C6           3.0410    11.2150    22.9470 C.3          1 PU11224   0.0000
    15 C5           1.8300    11.0150    23.8120 C.2          1 PU11224   0.0000
    16 N3           0.6270    11.4450    23.5600 N.2          1 PU11224   0.0000
    17 C2          -0.1750    10.9720    24.6730 C.ar         1 PU11224   0.0000
    18 C3          -1.4840    11.1340    24.9560 C.ar         1 PU11224   0.0000
    19 N5          -2.4570    11.8080    24.1250 N.pl3        1 PU11224   0.0000
    20 C1           0.5830    10.3140    25.5770 C.ar         1 PU11224   0.0000
    21 N1           0.1470     9.8430    26.7050 N.ar         1 PU11224   0.0000
    22 C4          -1.1360    10.0080    26.9530 C.ar         1 PU11224   0.0000
    23 N2          -1.8970    10.6050    26.0990 N.ar         1 PU11224   0.0000
    24 N4           1.9230    10.3260    25.0990 N.pl3        1 PU11224   0.0000
    25 C7           3.0880     9.6600    25.7080 C.3          1 PU11224   0.0000
    26 C8           2.9510     8.1510    25.6090 C.3          1 PU11224   0.0000
    27 C9           3.3900     7.4800    24.3360 C.3          1 PU11224   0.0000
    28 C10          4.7800     7.7670    23.7480 C.1          1 PU11224   0.0000
    29 C11          5.8230     8.0360    23.2680 C.1          1 PU11224   0.0000
    30 F           -1.6960     9.5510    28.0950 F            1 PU11224   0.0000
    31 H1           4.4492    16.6032    26.4826 H            1 PU11224   0.0000
    32 H2           3.3074    15.8647    25.5784 H            1 PU11224   0.0000
    33 H3           3.9068    15.1214    26.9031 H            1 PU11224   0.0000
    34 H4           8.5115    15.6718    25.1045 H            1 PU11224   0.0000
    35 H5           8.0944    15.0477    23.6543 H            1 PU11224   0.0000
    36 H6           7.0134    15.9263    24.5064 H            1 PU11224   0.0000
    37 H7           9.1390    10.4492    23.2798 H            1 PU11224   0.0000
    38 H8           7.5983     9.9083    23.3008 H            1 PU11224   0.0000
    39 H9           8.0467    11.0546    22.2277 H            1 PU11224   0.0000
    40 H10          5.5742    10.6224    23.0594 H            1 PU11224   0.0000
    41 H11          3.4173    10.3151    22.7265 H            1 PU11224   0.0000
    42 H12          2.7498    11.6699    22.1054 H            1 PU11224   0.0000
    43 H13         -3.4087    11.8760    24.4243 H            1 PU11224   0.0000
    44 H14         -2.1781    12.2060    23.2511 H            1 PU11224   0.0000
    45 H15          3.1505     9.9221    26.6710 H            1 PU11224   0.0000
    46 H16          3.9181     9.9470    25.2299 H            1 PU11224   0.0000
    47 H17          1.9845     7.9315    25.7419 H            1 PU11224   0.0000
    48 H18          3.4882     7.7549    26.3536 H            1 PU11224   0.0000
    49 H19          2.7236     7.7313    23.6341 H            1 PU11224   0.0000
    50 H20          3.3454     6.4946    24.5004 H            1 PU11224   0.0000
    51 H21          6.7075     8.2641    22.8610 H            1 PU11224   0.0000
@<TRIPOS>BOND
     1    1    2       1
     2    2    3      ar
     3    2   13      ar
     4    3    4       1
     5    3    6      ar
     6    4    5       1
     7    6    7       1
     8    6    9      ar
     9    7    8       1
    10    9   10       1
    11    9   12      ar
    12   10   11       1
    13   12   13      ar
    14   13   14       1
    15   14   15       1
    16   15   16       2
    17   15   24       1
    18   16   17       1
    19   17   18      ar
    20   17   20      ar
    21   18   19       1
    22   18   23      ar
    23   20   21      ar
    24   20   24       1
    25   21   22      ar
    26   22   23      ar
    27   22   30       1
    28   24   25       1
    29   25   26       1
    30   26   27       1
    31   27   28       1
    32   28   29       3
    33    5   31       1
    34    5   32       1
    35    5   33       1
    36    8   34       1
    37    8   35       1
    38    8   36       1
    39   11   37       1
    40   11   38       1
    41   11   39       1
    42   12   40       1
    43   14   41       1
    44   14   42       1
    45   19   43       1
    46   19   44       1
    47   25   45       1
    48   25   46       1
    49   26   47       1
    50   26   48       1
    51   27   49       1
    52   27   50       1
    53   29   51       1
@<TRIPOS>SUBSTRUCTURE
     1 PU11224     1 GROUP             4 A     PU1     0 **** PU1 A1224
