1uyf_PU1_1_ligand
  -OEChem-08111718373D

 51 53  0     1  0  0  0  0  0999 V2000
    6.7075    8.2641   22.8610 H   0  0  0  0  0  0  0  0  0  0  0  0
    5.5742   10.6224   23.0594 H   0  0  0  0  0  0  0  0  0  0  0  0
    9.1390   10.4492   23.2798 H   0  0  0  0  0  0  0  0  0  0  0  0
    7.5983    9.9083   23.3008 H   0  0  0  0  0  0  0  0  0  0  0  0
    8.0467   11.0546   22.2277 H   0  0  0  0  0  0  0  0  0  0  0  0
    8.5115   15.6718   25.1045 H   0  0  0  0  0  0  0  0  0  0  0  0
    8.0944   15.0477   23.6543 H   0  0  0  0  0  0  0  0  0  0  0  0
    7.0134   15.9263   24.5064 H   0  0  0  0  0  0  0  0  0  0  0  0
    4.4492   16.6032   26.4826 H   0  0  0  0  0  0  0  0  0  0  0  0
    3.3074   15.8647   25.5784 H   0  0  0  0  0  0  0  0  0  0  0  0
    3.9068   15.1214   26.9031 H   0  0  0  0  0  0  0  0  0  0  0  0
    2.7236    7.7313   23.6341 H   0  0  0  0  0  0  0  0  0  0  0  0
    3.3454    6.4946   24.5004 H   0  0  0  0  0  0  0  0  0  0  0  0
    3.4173   10.3151   22.7265 H   0  0  0  0  0  0  0  0  0  0  0  0
    2.7498   11.6699   22.1054 H   0  0  0  0  0  0  0  0  0  0  0  0
    1.9845    7.9315   25.7419 H   0  0  0  0  0  0  0  0  0  0  0  0
    3.4882    7.7549   26.3536 H   0  0  0  0  0  0  0  0  0  0  0  0
    3.1505    9.9221   26.6710 H   0  0  0  0  0  0  0  0  0  0  0  0
    3.9181    9.9470   25.2299 H   0  0  0  0  0  0  0  0  0  0  0  0
   -3.4087   11.8760   24.4243 H   0  0  0  0  0  0  0  0  0  0  0  0
   -2.1781   12.2060   23.2511 H   0  0  0  0  0  0  0  0  0  0  0  0
    5.8230    8.0360   23.2680 C   0  0  0  0  0  0  0  0  0  0  0  0
    4.7800    7.7670   23.7480 C   0  0  0  0  0  0  0  0  0  0  0  0
    5.4270   11.5070   23.5020 C   0  0  0  0  0  0  0  0  0  0  0  0
    4.1400   12.0430   23.5720 C   0  0  0  0  0  0  0  0  0  0  0  0
   -0.1750   10.9720   24.6730 C   0  0  0  0  0  0  0  0  0  0  0  0
    6.5020   12.1950   24.0430 C   0  0  0  0  0  0  0  0  0  0  0  0
    6.2650   13.3670   24.6310 C   0  0  0  0  0  0  0  0  0  0  0  0
    5.0260   13.9110   24.7110 C   0  0  0  0  0  0  0  0  0  0  0  0
    3.8980   13.2920   24.2100 C   0  0  0  0  0  0  0  0  0  0  0  0
    0.5830   10.3140   25.5770 C   0  0  0  0  0  0  0  0  0  0  0  0
   -1.4840   11.1340   24.9560 C   0  0  0  0  0  0  0  0  0  0  0  0
    1.8300   11.0150   23.8120 C   0  0  0  0  0  0  0  0  0  0  0  0
   -1.1360   10.0080   26.9530 C   0  0  0  0  0  0  0  0  0  0  0  0
    8.1810   10.7080   23.1560 C   0  0  0  0  0  0  0  0  0  0  0  0
    7.7660   15.2710   24.5720 C   0  0  0  0  0  0  0  0  0  0  0  0
    4.1260   15.7230   26.1350 C   0  0  0  0  0  0  0  0  0  0  0  0
    3.3900    7.4800   24.3360 C   0  0  1  0  0  0  0  0  0  0  0  0
    3.0410   11.2150   22.9470 C   0  0  2  0  0  0  0  0  0  0  0  0
    2.9510    8.1510   25.6090 C   0  0  1  0  0  0  0  0  0  0  0  0
    3.0880    9.6600   25.7080 C   0  0  1  0  0  0  0  0  0  0  0  0
    0.6270   11.4450   23.5600 N   0  0  0  0  0  0  0  0  0  0  0  0
    0.1470    9.8430   26.7050 N   0  0  0  0  0  0  0  0  0  0  0  0
   -1.8970   10.6050   26.0990 N   0  0  0  0  0  0  0  0  0  0  0  0
    1.9230   10.3260   25.0990 N   0  0  0  0  0  0  0  0  0  0  0  0
   -2.4570   11.8080   24.1250 N   0  0  0  0  0  0  0  0  0  0  0  0
    7.8340   11.7330   24.1060 O   0  0  0  0  0  0  0  0  0  0  0  0
    7.3090   14.0870   25.2130 O   0  0  0  0  0  0  0  0  0  0  0  0
    5.1190   15.1390   25.3580 O   0  0  0  0  0  0  0  0  0  0  0  0
   -1.6960    9.5510   28.0950 F   0  0  0  0  0  0  0  0  0  0  0  0
    2.3120   14.0680   24.3150 Cl  0  0  0  0  0  0  0  0  0  0  0  0
  1 22  1  0  0  0  0
  2 24  1  0  0  0  0
  3 35  1  0  0  0  0
  4 35  1  0  0  0  0
  5 35  1  0  0  0  0
  6 36  1  0  0  0  0
  7 36  1  0  0  0  0
  8 36  1  0  0  0  0
  9 37  1  0  0  0  0
 10 37  1  0  0  0  0
 11 37  1  0  0  0  0
 12 38  1  0  0  0  0
 13 38  1  0  0  0  0
 14 39  1  0  0  0  0
 15 39  1  0  0  0  0
 16 40  1  0  0  0  0
 17 40  1  0  0  0  0
 18 41  1  0  0  0  0
 19 41  1  0  0  0  0
 20 46  1  0  0  0  0
 21 46  1  0  0  0  0
 22 23  3  0  0  0  0
 23 38  1  0  0  0  0
 24 25  2  0  0  0  0
 24 27  1  0  0  0  0
 25 30  1  0  0  0  0
 25 39  1  0  0  0  0
 26 31  1  0  0  0  0
 26 32  2  0  0  0  0
 26 42  1  0  0  0  0
 27 28  2  0  0  0  0
 27 47  1  0  0  0  0
 28 29  1  0  0  0  0
 28 48  1  0  0  0  0
 29 30  2  0  0  0  0
 29 49  1  0  0  0  0
 30 51  1  0  0  0  0
 31 43  2  0  0  0  0
 31 45  1  0  0  0  0
 32 44  1  0  0  0  0
 32 46  1  0  0  0  0
 33 39  1  0  0  0  0
 33 42  2  0  0  0  0
 33 45  1  0  0  0  0
 34 43  1  0  0  0  0
 34 44  2  0  0  0  0
 34 50  1  0  0  0  0
 35 47  1  0  0  0  0
 36 48  1  0  0  0  0
 37 49  1  0  0  0  0
 38 40  1  0  0  0  0
 40 41  1  0  0  0  0
 41 45  1  0  0  0  0
M  END
> <scpdb_id>
1uyf_1

$$$$
