#    Name: 9602
#    Modification time : Wed Aug  9 00:32:17 2017

@<TRIPOS>MOLECULE
9602
   44     0    12     0     0
SMALL
NO_CHARGES


@<TRIPOS>ATOM
      1 N           4.6670   67.1560   56.2740 N.am      1 SEL1        0.0000 
      2 N           6.8360   64.9740   59.5090 N.am      1 SEL1        0.0000 
      3 N           2.5830   64.8710   52.4500 N.am      1 SEL1        0.0000 
      4 O           5.4640   66.5050   58.2590 O.2       2 ALL2        0.0000 
      5 O           6.8360   64.9740   59.5090 O.2       2 ALL2        0.0000 
      6 O           2.5830   64.8710   52.4500 O.2       2 ALL2        0.0000 
      7 CA          4.5650   64.3110   59.2190 C.3       3 GLL5        0.0000 
      8 CA          4.1590   64.4220   54.1900 C.3       3 GLL5        0.0000 
      9 CA          2.9290   63.9950   53.4840 C.3       3 GLL5        0.0000 
     10 CA          1.2680   62.5020   54.6850 C.3       3 GLL5        0.0000 
     11 CA          1.7940   63.8940   54.5060 C.3       3 GLL5        0.0000 
     12 Zn          6.8360   64.9740   59.5090 Zn        4 ZIL7        0.0000 
     13 N           6.7640   69.4300   55.5020 N.am      5 SEP1        0.0000 
     14 N           7.5540   62.9330   61.1720 N.am      5 SEP1        0.0000 
     15 N           1.4590   67.5700   53.3210 N.am      5 SEP1        0.0000 
     16 O           7.2160   68.5520   58.8010 O.2       6 ALP2        0.0000 
     17 O           7.8370   67.2390   60.4520 O.2       6 ALP2        0.0000 
     18 O           0.3530   64.4180   51.3060 O.2       6 ALP2        0.0000 
     19 CA          7.4340   61.3570   59.2790 C.3       7 GLP5        0.0000 
     20 CA          2.3180   62.2180   61.5420 C.3       7 GLP5        0.0000 
     21 CA          7.3390   64.7330   55.4860 C.3       7 GLP5        0.0000 
     22 CA          1.7020   65.2970   49.5610 C.3       7 GLP5        0.0000 
     23 CA          5.2990   63.0090   49.9130 C.3       7 GLP5        0.0000 
     24 CA         -2.1140   62.8350   52.4430 C.3       7 GLP5        0.0000 
     25 CA         -1.6740   61.3970   57.2290 C.3       7 GLP5        0.0000 
     26 CA          3.7270   68.4180   53.3830 C.3       7 GLP5        0.0000 
     27 CA         -0.6210   65.2500   57.1930 C.3       7 GLP5        0.0000 
     28 Zn          8.1840   64.2870   57.6850 Zn        8 ZIP7        0.0000 
     29 N           5.7155   68.2930   55.8880 N.am      9 SEC1        0.0000 
     30 N           7.1950   63.9535   60.3405 N.am      9 SEC1        0.0000 
     31 N           2.0210   66.2205   52.8855 N.am      9 SEC1        0.0000 
     32 O           6.3400   67.5285   58.5300 O.2      10 ALC2        0.0000 
     33 O           7.3365   66.1065   59.9805 O.2      10 ALC2        0.0000 
     34 O           1.4680   64.6445   51.8780 O.2      10 ALC2        0.0000 
     35 CA          5.9995   62.8340   59.2490 C.3      11 GLC5        0.0000 
     36 CA          3.4415   63.2645   60.3805 C.3      11 GLC5        0.0000 
     37 CA          5.7490   64.5775   54.8380 C.3      11 GLC5        0.0000 
     38 CA          2.3155   64.6460   51.5225 C.3      11 GLC5        0.0000 
     39 CA          4.1140   63.5020   51.6985 C.3      11 GLC5        0.0000 
     40 CA         -0.4230   62.6685   53.5640 C.3      11 GLC5        0.0000 
     41 CA         -0.2030   61.9495   55.9570 C.3      11 GLC5        0.0000 
     42 CA          3.6355   66.3133   53.6100 C.3      11 GLC5        0.0000 
     43 CA          0.4550   64.2240   55.8942 C.3      11 GLC5        0.0000 
     44 Zn          7.5100   64.6305   58.5970 Zn       12 ZIC7        0.0000 
@<TRIPOS>BOND
@<TRIPOS>SUBSTRUCTURE
     1 SEL1        1 GROUP        1 Z    SEL  0     ROOT SEL Z 0
     2 ALL2        4 GROUP        1 Z    ALL  0     **** ALL Z 1
     3 GLL5        7 GROUP        1 Z    GLL  0     **** GLL Z 4
     4 ZIL7       12 GROUP        1 Z    ZIL  0     **** ZIL Z 5
     5 SEP1       13 GROUP        1 Z    SEP  0     **** SEP Z 7
     6 ALP2       16 GROUP        1 Z    ALP  0     **** ALP Z 8
     7 GLP5       19 GROUP        1 Z    GLP  0     **** GLP Z 11
     8 ZIP7       28 GROUP        1 Z    ZIP  0     **** ZIP Z 12
     9 SEC1       29 GROUP        1 Z    SEC  0     **** SEC Z 14
    10 ALC2       32 GROUP        1 Z    ALC  0     **** ALC Z 15
    11 GLC5       35 GROUP        1 Z    GLC  0     **** GLC Z 18
    12 ZIC7       44 GROUP        1 Z    ZIC  0     **** ZIC Z 19
@<TRIPOS>SET

