1uwz_THU_1_ligand
  -OEChem-08111718373D

 32 33  0     1  0  0  0  0  0999 V2000
    3.6895   64.5399   59.6445 H   0  0  0  0  0  0  0  0  0  0  0  0
    4.9612   63.5160   59.6785 H   0  0  0  0  0  0  0  0  0  0  0  0
    4.8457   63.6954   54.2110 H   0  0  0  0  0  0  0  0  0  0  0  0
    4.5554   65.2436   53.7804 H   0  0  0  0  0  0  0  0  0  0  0  0
    5.1936   63.6347   57.3377 H   0  0  0  0  0  0  0  0  0  0  0  0
    3.6220   63.3087   57.6385 H   0  0  0  0  0  0  0  0  0  0  0  0
    3.0859   63.0881   53.0929 H   0  0  0  0  0  0  0  0  0  0  0  0
    1.0381   64.4476   54.1565 H   0  0  0  0  0  0  0  0  0  0  0  0
    3.4275   65.6463   55.2927 H   0  0  0  0  0  0  0  0  0  0  0  0
    5.3058   65.9987   60.1878 H   0  0  0  0  0  0  0  0  0  0  0  0
    0.9331   62.1462   53.8125 H   0  0  0  0  0  0  0  0  0  0  0  0
    0.5245   62.4988   55.3537 H   0  0  0  0  0  0  0  0  0  0  0  0
    5.9955   67.3485   58.3362 H   0  0  0  0  0  0  0  0  0  0  0  0
    1.7501   64.5457   52.0022 H   0  0  0  0  0  0  0  0  0  0  0  0
    7.3506   65.5323   60.1598 H   0  0  0  0  0  0  0  0  0  0  0  0
    2.0458   60.7627   55.2891 H   0  0  0  0  0  0  0  0  0  0  0  0
    4.7010   66.3100   57.1580 C   0  0  0  0  0  0  0  0  0  0  0  0
    4.5650   64.3110   59.2190 C   0  0  1  0  0  0  0  0  0  0  0  0
    4.1590   64.4220   54.1900 C   0  0  1  0  0  0  0  0  0  0  0  0
    4.3470   63.9910   57.7330 C   0  0  1  0  0  0  0  0  0  0  0  0
    2.9290   63.9950   53.4840 C   0  0  1  0  0  0  0  0  0  0  0  0
    1.7940   63.8940   54.5060 C   0  0  1  0  0  0  0  0  0  0  0  0
    3.5990   64.6950   55.5490 C   0  0  2  0  0  0  0  0  0  0  0  0
    5.5360   65.5210   59.3400 C   0  0  2  0  0  0  0  0  0  0  0  0
    1.2680   62.5020   54.6850 C   0  0  2  0  0  0  0  0  0  0  0  0
    5.4640   66.5050   58.2590 N   0  0  0  0  0  0  0  0  0  0  0  0
    3.9770   65.1650   57.0720 N   0  0  2  0  0  0  0  0  0  0  0  0
    4.6670   67.1560   56.2740 O   0  0  0  0  0  0  0  0  0  0  0  0
    2.2090   64.4880   55.7380 O   0  0  0  0  0  0  0  0  0  0  0  0
    2.5830   64.8710   52.4500 O   0  0  0  0  0  0  0  0  0  0  0  0
    6.8360   64.9740   59.5090 O   0  0  0  0  0  0  0  0  0  0  0  0
    2.3560   61.7040   55.1560 O   0  0  0  0  0  0  0  0  0  0  0  0
  1 18  1  0  0  0  0
  2 18  1  0  0  0  0
  3 19  1  0  0  0  0
  4 19  1  0  0  0  0
  5 20  1  0  0  0  0
  6 20  1  0  0  0  0
  7 21  1  0  0  0  0
  8 22  1  0  0  0  0
  9 23  1  0  0  0  0
 10 24  1  0  0  0  0
 11 25  1  0  0  0  0
 12 25  1  0  0  0  0
 13 26  1  0  0  0  0
 14 30  1  0  0  0  0
 15 31  1  0  0  0  0
 16 32  1  0  0  0  0
 17 26  1  0  0  0  0
 17 27  1  0  0  0  0
 17 28  2  0  0  0  0
 18 20  1  0  0  0  0
 18 24  1  0  0  0  0
 19 21  1  0  0  0  0
 19 23  1  0  0  0  0
 20 27  1  0  0  0  0
 21 22  1  0  0  0  0
 21 30  1  0  0  0  0
 22 25  1  0  0  0  0
 22 29  1  0  0  0  0
 23 27  1  0  0  0  0
 23 29  1  0  0  0  0
 24 26  1  0  0  0  0
 24 31  1  0  0  0  0
 25 32  1  0  0  0  0
M  END
> <scpdb_id>
1uwz_1

$$$$
