@<TRIPOS>MOLECULE
1uwz_THU_1_ligand
   32    33     1     0     0
SMALL
NO_CHARGES


@<TRIPOS>ATOM
     1 N1           3.9770    65.1650    57.0720 N.am         1 THU138   0.0000
     2 C2           4.7010    66.3100    57.1580 C.2          1 THU138   0.0000
     3 O2           4.6670    67.1560    56.2740 O.2          1 THU138   0.0000
     4 N3           5.4640    66.5050    58.2590 N.am         1 THU138   0.0000
     5 C4           5.5360    65.5210    59.3400 C.3          1 THU138   0.0000
     6 O4           6.8360    64.9740    59.5090 O.3          1 THU138   0.0000
     7 C5           4.5650    64.3110    59.2190 C.3          1 THU138   0.0000
     8 C6           4.3470    63.9910    57.7330 C.3          1 THU138   0.0000
     9 C1'          3.5990    64.6950    55.5490 C.3          1 THU138   0.0000
    10 C2'          4.1590    64.4220    54.1900 C.3          1 THU138   0.0000
    11 C3'          2.9290    63.9950    53.4840 C.3          1 THU138   0.0000
    12 O3'          2.5830    64.8710    52.4500 O.3          1 THU138   0.0000
    13 C4'          1.7940    63.8940    54.5060 C.3          1 THU138   0.0000
    14 O4'          2.2090    64.4880    55.7380 O.3          1 THU138   0.0000
    15 C5'          1.2680    62.5020    54.6850 C.3          1 THU138   0.0000
    16 O5'          2.3560    61.7040    55.1560 O.3          1 THU138   0.0000
    17 H1           5.9955    67.3485    58.3362 H            1 THU138   0.0000
    18 H2           5.3058    65.9987    60.1878 H            1 THU138   0.0000
    19 H3           7.3506    65.5323    60.1598 H            1 THU138   0.0000
    20 H4           3.6895    64.5399    59.6445 H            1 THU138   0.0000
    21 H5           4.9612    63.5160    59.6785 H            1 THU138   0.0000
    22 H6           5.1936    63.6347    57.3377 H            1 THU138   0.0000
    23 H7           3.6220    63.3087    57.6385 H            1 THU138   0.0000
    24 H1'          3.4275    65.6463    55.2927 H            1 THU138   0.0000
    25 H2'1         4.8457    63.6954    54.2110 H            1 THU138   0.0000
    26 H2'2         4.5554    65.2436    53.7804 H            1 THU138   0.0000
    27 H3'          3.0859    63.0881    53.0929 H            1 THU138   0.0000
    28 H12          1.7501    64.5457    52.0022 H            1 THU138   0.0000
    29 H4'          1.0381    64.4476    54.1565 H            1 THU138   0.0000
    30 H5'1         0.9331    62.1462    53.8125 H            1 THU138   0.0000
    31 H5'2         0.5245    62.4988    55.3537 H            1 THU138   0.0000
    32 H5'          2.0458    60.7627    55.2891 H            1 THU138   0.0000
@<TRIPOS>BOND
     1    1    2      am
     2    1    8       1
     3    1    9       1
     4    2    3       2
     5    2    4      am
     6    4    5       1
     7    5    6       1
     8    5    7       1
     9    7    8       1
    10    9   10       1
    11    9   14       1
    12   10   11       1
    13   11   12       1
    14   11   13       1
    15   13   14       1
    16   13   15       1
    17   15   16       1
    18    4   17       1
    19    5   18       1
    20    6   19       1
    21    7   20       1
    22    7   21       1
    23    8   22       1
    24    8   23       1
    25    9   24       1
    26   10   25       1
    27   10   26       1
    28   11   27       1
    29   12   28       1
    30   13   29       1
    31   15   30       1
    32   15   31       1
    33   16   32       1
@<TRIPOS>SUBSTRUCTURE
     1 THU138      1 GROUP             4 A     THU     0 **** THU A 138
