#    Name: 38857
#    Modification time : Wed Aug  9 01:23:21 2017

@<TRIPOS>MOLECULE
38857
   53     0    15     0     0
SMALL
NO_CHARGES


@<TRIPOS>ATOM
      1 N          17.9830  -30.1160   63.9100 N.am      1 SEL1        0.0000 
      2 N          18.1780  -30.0070   61.3900 N.am      1 SEL1        0.0000 
      3 N          15.9090  -29.8570   62.4740 N.am      1 SEL1        0.0000 
      4 N          18.2100  -26.3520   60.9260 N.am      1 SEL1        0.0000 
      5 N          19.9630  -27.9180   62.0620 N.am      1 SEL1        0.0000 
      6 N          17.4950  -28.0070   62.7290 N.am      1 SEL1        0.0000 
      7 N          18.4600  -23.7970   62.1550 N.am      1 SEL1        0.0000 
      8 N          22.8470  -20.5460   64.0900 N.am      1 SEL1        0.0000 
      9 O          17.4890  -21.6800   67.9350 O.2       2 ALL2        0.0000 
     10 O          24.8890  -18.1430   63.8280 O.2       2 ALL2        0.0000 
     11 NZ         17.9830  -30.1160   63.9100 N.4       3 LYL3        0.0000 
     12 NZ         18.1780  -30.0070   61.3900 N.4       3 LYL3        0.0000 
     13 NZ         15.9090  -29.8570   62.4740 N.4       3 LYL3        0.0000 
     14 CA         18.7670  -24.2850   65.9740 C.3       4 GLL5        0.0000 
     15 Zn         18.2100  -26.3520   60.9260 Zn        5 ZIL7        0.0000 
     16 N          16.8210  -32.4880   64.6670 N.am      6 SEP1        0.0000 
     17 N          17.1560  -27.8790   65.4080 N.am      6 SEP1        0.0000 
     18 N          18.3780  -29.3870   66.6340 N.am      6 SEP1        0.0000 
     19 N          15.4940  -30.8460   65.5700 N.am      6 SEP1        0.0000 
     20 N          19.4870  -30.8920   59.3540 N.am      6 SEP1        0.0000 
     21 N          18.4070  -24.3940   58.9160 N.am      6 SEP1        0.0000 
     22 N          21.0300  -29.3320   63.9310 N.am      6 SEP1        0.0000 
     23 N          24.3660  -21.3770   61.4900 N.am      6 SEP1        0.0000 
     24 O          16.3980  -24.9760   68.2400 O.2       7 ALP2        0.0000 
     25 O          15.3340  -23.1340   67.7020 O.2       7 ALP2        0.0000 
     26 O          25.6030  -19.5450   61.0770 O.2       7 ALP2        0.0000 
     27 O          26.0230  -15.6900   63.7260 O.2       7 ALP2        0.0000 
     28 NZ         17.7380  -28.2290   66.5480 N.4       8 LYP3        0.0000 
     29 NZ         15.8340  -32.1240   65.4760 N.4       8 LYP3        0.0000 
     30 NZ         19.4870  -30.8920   59.3540 N.4       8 LYP3        0.0000 
     31 CA         19.0280  -26.5030   69.4540 C.3       9 GLP5        0.0000 
     32 Zn         16.6240  -28.0300   59.4870 Zn       10 ZIP7        0.0000 
     33 N          17.4020  -31.3020   64.2885 N.am     11 SEC1        0.0000 
     34 N          17.5695  -28.9975   64.6590 N.am     11 SEC1        0.0000 
     35 N          18.1805  -29.7515   65.2720 N.am     11 SEC1        0.0000 
     36 N          16.7385  -30.4810   64.7400 N.am     11 SEC1        0.0000 
     37 N          18.8325  -30.4495   60.3720 N.am     11 SEC1        0.0000 
     38 N          15.7015  -30.3515   64.0220 N.am     11 SEC1        0.0000 
     39 N          18.3085  -25.3730   59.9210 N.am     11 SEC1        0.0000 
     40 N          20.4965  -28.6250   62.9965 N.am     11 SEC1        0.0000 
     41 N          17.3255  -27.9430   64.0685 N.am     11 SEC1        0.0000 
     42 N          18.4335  -24.0955   60.5355 N.am     11 SEC1        0.0000 
     43 N          23.6065  -20.9615   62.7900 N.am     11 SEC1        0.0000 
     44 O          16.9435  -23.3280   68.0875 O.2      12 ALC2        0.0000 
     45 O          16.4115  -22.4070   67.8185 O.2      12 ALC2        0.0000 
     46 O          25.2460  -18.8440   62.4525 O.2      12 ALC2        0.0000 
     47 O          25.4560  -16.9165   63.7770 O.2      12 ALC2        0.0000 
     48 NZ         17.8605  -29.1725   65.2290 N.4      13 LYC3        0.0000 
     49 NZ         16.9085  -31.1200   64.6930 N.4      13 LYC3        0.0000 
     50 NZ         18.8325  -30.4495   60.3720 N.4      13 LYC3        0.0000 
     51 NZ         15.8715  -30.9905   63.9750 N.4      13 LYC3        0.0000 
     52 CA         18.9808  -25.1095   67.9530 C.3      14 GLC5        0.0000 
     53 Zn         17.4170  -27.1910   60.2065 Zn       15 ZIC7        0.0000 
@<TRIPOS>BOND
@<TRIPOS>SUBSTRUCTURE
     1 SEL1        1 GROUP        1 Z    SEL  0     ROOT SEL Z 0
     2 ALL2        9 GROUP        1 Z    ALL  0     **** ALL Z 1
     3 LYL3       11 GROUP        1 Z    LYL  0     **** LYL Z 2
     4 GLL5       14 GROUP        1 Z    GLL  0     **** GLL Z 4
     5 ZIL7       15 GROUP        1 Z    ZIL  0     **** ZIL Z 5
     6 SEP1       16 GROUP        1 Z    SEP  0     **** SEP Z 7
     7 ALP2       24 GROUP        1 Z    ALP  0     **** ALP Z 8
     8 LYP3       28 GROUP        1 Z    LYP  0     **** LYP Z 9
     9 GLP5       31 GROUP        1 Z    GLP  0     **** GLP Z 11
    10 ZIP7       32 GROUP        1 Z    ZIP  0     **** ZIP Z 12
    11 SEC1       33 GROUP        1 Z    SEC  0     **** SEC Z 14
    12 ALC2       44 GROUP        1 Z    ALC  0     **** ALC Z 15
    13 LYC3       48 GROUP        1 Z    LYC  0     **** LYC Z 16
    14 GLC5       52 GROUP        1 Z    GLC  0     **** GLC Z 18
    15 ZIC7       53 GROUP        1 Z    ZIC  0     **** ZIC Z 19
@<TRIPOS>SET

