4beb_ATP_2_ligand
  -OEChem-08111718373D

 43 45  0     1  0  0  0  0  0999 V2000
   23.1417  -16.9679   67.6685 H   0  0  0  0  0  0  0  0  0  0  0  0
   21.4813  -22.1155   64.3022 H   0  0  0  0  0  0  0  0  0  0  0  0
   17.5173  -22.1568   65.9773 H   0  0  0  0  0  0  0  0  0  0  0  0
   19.0335  -20.6378   65.3555 H   0  0  0  0  0  0  0  0  0  0  0  0
   19.0020  -23.4703   67.8712 H   0  0  0  0  0  0  0  0  0  0  0  0
   20.6381  -20.9366   67.6957 H   0  0  0  0  0  0  0  0  0  0  0  0
   19.3282  -25.0810   66.2009 H   0  0  0  0  0  0  0  0  0  0  0  0
   17.7999  -24.5215   66.0672 H   0  0  0  0  0  0  0  0  0  0  0  0
   25.5026  -17.3534   63.8254 H   0  0  0  0  0  0  0  0  0  0  0  0
   24.9086  -18.7939   63.0691 H   0  0  0  0  0  0  0  0  0  0  0  0
   16.6381  -22.2040   67.9726 H   0  0  0  0  0  0  0  0  0  0  0  0
   17.8695  -19.8407   67.6291 H   0  0  0  0  0  0  0  0  0  0  0  0
   23.1310  -17.6410   66.9290 C   0  0  0  0  0  0  0  0  0  0  0  0
   21.8700  -21.2760   64.6820 C   0  0  0  0  0  0  0  0  0  0  0  0
   23.1100  -19.4940   64.8890 C   0  0  0  0  0  0  0  0  0  0  0  0
   22.2120  -19.6150   66.0490 C   0  0  0  0  0  0  0  0  0  0  0  0
   24.0310  -18.3310   64.8600 C   0  0  0  0  0  0  0  0  0  0  0  0
   18.1700  -21.9640   66.7100 C   0  0  1  0  0  0  0  0  0  0  0  0
   19.0620  -20.7990   66.3420 C   0  0  2  0  0  0  0  0  0  0  0  0
   19.1000  -23.1470   66.9300 C   0  0  1  0  0  0  0  0  0  0  0  0
   20.4530  -21.2490   66.7640 C   0  0  2  0  0  0  0  0  0  0  0  0
   18.7670  -24.2850   65.9740 C   0  0  1  0  0  0  0  0  0  0  0  0
   22.2680  -18.6710   67.0210 N   0  0  0  0  0  0  0  0  0  0  0  0
   23.9810  -17.4650   65.8980 N   0  0  0  0  0  0  0  0  0  0  0  0
   22.8470  -20.5460   64.0900 N   0  0  0  0  0  0  0  0  0  0  0  0
   21.4930  -20.7220   65.8470 N   0  0  0  0  0  0  0  0  0  0  0  0
   24.8890  -18.1430   63.8280 N   0  0  0  0  0  0  0  0  0  0  0  0
   18.1780  -30.0070   61.3900 O   0  5  0  0  0  0  0  0  0  0  0  0
   15.9090  -29.8570   62.4740 O   0  5  0  0  0  0  0  0  0  0  0  0
   16.7720  -24.7300   63.9020 O   0  5  0  0  0  0  0  0  0  0  0  0
   19.9630  -27.9180   62.0620 O   0  5  0  0  0  0  0  0  0  0  0  0
   17.9830  -30.1160   63.9100 O   0  0  0  0  0  0  0  0  0  0  0  0
   18.4600  -23.7970   62.1550 O   0  0  0  0  0  0  0  0  0  0  0  0
   18.2100  -26.3520   60.9260 O   0  0  0  0  0  0  0  0  0  0  0  0
   20.4370  -22.6790   66.7320 O   0  0  0  0  0  0  0  0  0  0  0  0
   17.4890  -21.6800   67.9350 O   0  0  0  0  0  0  0  0  0  0  0  0
   18.6550  -19.6250   67.0490 O   0  0  0  0  0  0  0  0  0  0  0  0
   19.0280  -23.8940   64.6260 O   0  0  0  0  0  0  0  0  0  0  0  0
   17.4950  -28.0070   62.7290 O   0  0  0  0  0  0  0  0  0  0  0  0
   18.8850  -26.0360   63.3610 O   0  0  0  0  0  0  0  0  0  0  0  0
   17.3910  -29.6180   62.6160 P   0  0  0  0  0  0  0  0  0  0  0  0
   18.1970  -24.5740   63.4240 P   0  0  1  0  0  0  0  0  0  0  0  0
   18.6990  -27.0910   62.1510 P   0  0  1  0  0  0  0  0  0  0  0  0
  1 13  1  0  0  0  0
  2 14  1  0  0  0  0
  3 18  1  0  0  0  0
  4 19  1  0  0  0  0
  5 20  1  0  0  0  0
  6 21  1  0  0  0  0
  7 22  1  0  0  0  0
  8 22  1  0  0  0  0
  9 27  1  0  0  0  0
 10 27  1  0  0  0  0
 11 36  1  0  0  0  0
 12 37  1  0  0  0  0
 13 23  1  0  0  0  0
 13 24  2  0  0  0  0
 14 25  2  0  0  0  0
 14 26  1  0  0  0  0
 15 16  1  0  0  0  0
 15 17  2  0  0  0  0
 15 25  1  0  0  0  0
 16 23  2  0  0  0  0
 16 26  1  0  0  0  0
 17 24  1  0  0  0  0
 17 27  1  0  0  0  0
 18 19  1  0  0  0  0
 18 20  1  0  0  0  0
 18 36  1  0  0  0  0
 19 21  1  0  0  0  0
 19 37  1  0  0  0  0
 20 22  1  0  0  0  0
 20 35  1  0  0  0  0
 21 26  1  0  0  0  0
 21 35  1  0  0  0  0
 22 38  1  0  0  0  0
 28 41  1  0  0  0  0
 29 41  1  0  0  0  0
 30 42  1  0  0  0  0
 31 43  1  0  0  0  0
 32 41  2  0  0  0  0
 33 42  2  0  0  0  0
 34 43  2  0  0  0  0
 38 42  1  0  0  0  0
 39 41  1  0  0  0  0
 39 43  1  0  0  0  0
 40 42  1  0  0  0  0
 40 43  1  0  0  0  0
M  CHG  4  28  -1  29  -1  31  -1  30  -1
M  END
> <scpdb_id>
4beb_2

$$$$
