@<TRIPOS>MOLECULE
4beb_ATP_2_ligand
   43    45     1     0     0
SMALL
NO_CHARGES


@<TRIPOS>ATOM
     1 PG          17.3910   -29.6180    62.6160 P.3          1 ATP1886   0.0000
     2 O1G         17.9830   -30.1160    63.9100 O.co2        1 ATP1886   0.0000
     3 O2G         18.1780   -30.0070    61.3900 O.co2        1 ATP1886  -1.0000
     4 O3G         15.9090   -29.8570    62.4740 O.co2        1 ATP1886  -1.0000
     5 PB          18.6990   -27.0910    62.1510 P.3          1 ATP1886   0.0000
     6 O1B         18.2100   -26.3520    60.9260 O.co2        1 ATP1886   0.0000
     7 O2B         19.9630   -27.9180    62.0620 O.co2        1 ATP1886  -1.0000
     8 O3B         17.4950   -28.0070    62.7290 O.3          1 ATP1886   0.0000
     9 PA          18.1970   -24.5740    63.4240 P.3          1 ATP1886   0.0000
    10 O1A         18.4600   -23.7970    62.1550 O.co2        1 ATP1886   0.0000
    11 O2A         16.7720   -24.7300    63.9020 O.co2        1 ATP1886  -1.0000
    12 O3A         18.8850   -26.0360    63.3610 O.3          1 ATP1886   0.0000
    13 O5'         19.0280   -23.8940    64.6260 O.3          1 ATP1886   0.0000
    14 C5'         18.7670   -24.2850    65.9740 C.3          1 ATP1886   0.0000
    15 C4'         19.1000   -23.1470    66.9300 C.3          1 ATP1886   0.0000
    16 O4'         20.4370   -22.6790    66.7320 O.3          1 ATP1886   0.0000
    17 C3'         18.1700   -21.9640    66.7100 C.3          1 ATP1886   0.0000
    18 O3'         17.4890   -21.6800    67.9350 O.3          1 ATP1886   0.0000
    19 C2'         19.0620   -20.7990    66.3420 C.3          1 ATP1886   0.0000
    20 O2'         18.6550   -19.6250    67.0490 O.3          1 ATP1886   0.0000
    21 C1'         20.4530   -21.2490    66.7640 C.3          1 ATP1886   0.0000
    22 N9          21.4930   -20.7220    65.8470 N.pl3        1 ATP1886   0.0000
    23 C8          21.8700   -21.2760    64.6820 C.2          1 ATP1886   0.0000
    24 N7          22.8470   -20.5460    64.0900 N.2          1 ATP1886   0.0000
    25 C5          23.1100   -19.4940    64.8890 C.ar         1 ATP1886   0.0000
    26 C6          24.0310   -18.3310    64.8600 C.ar         1 ATP1886   0.0000
    27 N6          24.8890   -18.1430    63.8280 N.pl3        1 ATP1886   0.0000
    28 N1          23.9810   -17.4650    65.8980 N.ar         1 ATP1886   0.0000
    29 C2          23.1310   -17.6410    66.9290 C.ar         1 ATP1886   0.0000
    30 N3          22.2680   -18.6710    67.0210 N.ar         1 ATP1886   0.0000
    31 C4          22.2120   -19.6150    66.0490 C.ar         1 ATP1886   0.0000
    32 H5'1        19.3282   -25.0810    66.2009 H            1 ATP1886   0.0000
    33 H5'2        17.7999   -24.5215    66.0672 H            1 ATP1886   0.0000
    34 H4'         19.0020   -23.4703    67.8712 H            1 ATP1886   0.0000
    35 H3'         17.5173   -22.1568    65.9773 H            1 ATP1886   0.0000
    36 H5          16.6381   -22.2040    67.9726 H            1 ATP1886   0.0000
    37 H2'         19.0335   -20.6378    65.3555 H            1 ATP1886   0.0000
    38 H7          17.8695   -19.8407    67.6291 H            1 ATP1886   0.0000
    39 H1'         20.6381   -20.9366    67.6957 H            1 ATP1886   0.0000
    40 H9          21.4813   -22.1155    64.3022 H            1 ATP1886   0.0000
    41 H10         25.5026   -17.3534    63.8254 H            1 ATP1886   0.0000
    42 H11         24.9086   -18.7939    63.0691 H            1 ATP1886   0.0000
    43 H12         23.1417   -16.9679    67.6685 H            1 ATP1886   0.0000
@<TRIPOS>BOND
     1    1    2      ar
     2    1    3      ar
     3    1    4      ar
     4    1    8       1
     5    5    6      ar
     6    5    7      ar
     7    5    8       1
     8    5   12       1
     9    9   10      ar
    10    9   11      ar
    11    9   12       1
    12    9   13       1
    13   13   14       1
    14   14   15       1
    15   15   16       1
    16   15   17       1
    17   16   21       1
    18   17   18       1
    19   17   19       1
    20   19   20       1
    21   19   21       1
    22   21   22       1
    23   22   23       1
    24   22   31       1
    25   23   24       2
    26   24   25       1
    27   25   26      ar
    28   25   31      ar
    29   26   27       1
    30   26   28      ar
    31   28   29      ar
    32   29   30      ar
    33   30   31      ar
    34   29   43       1
    35   27   42       1
    36   27   41       1
    37   23   40       1
    38   14   32       1
    39   14   33       1
    40   15   34       1
    41   17   35       1
    42   18   36       1
    43   19   37       1
    44   20   38       1
    45   21   39       1
@<TRIPOS>SUBSTRUCTURE
     1 ATP1886     1 GROUP             4 B     ATP     0 **** ATP B1886
