#    Name: 7185
#    Modification time : Tue Aug  8 19:19:55 2017

@<TRIPOS>MOLECULE
7185
   49     0    12     0     0
SMALL
NO_CHARGES


@<TRIPOS>ATOM
      1 N         104.7000    1.2960  118.4720 N.am      1 SEL1        0.0000 
      2 N         100.4350    2.6970  115.9910 N.am      1 SEL1        0.0000 
      3 N          99.2160    6.1790  116.9010 N.am      1 SEL1        0.0000 
      4 O         104.4340   -0.4230  117.0220 O.2       2 ALL2        0.0000 
      5 CA        102.4760    2.6670  117.2670 C.3       3 GLL5        0.0000 
      6 CA         98.6500    4.6960  119.3810 C.3       3 GLL5        0.0000 
      7 CA         97.0600    0.4390  122.2400 C.3       3 GLL5        0.0000 
      8 CA         96.9480    2.1860  120.5780 C.3       3 GLL5        0.0000 
      9 CA        103.5820    4.7830  116.4030 C.3       3 GLL5        0.0000 
     10 CA        102.3220    5.5820  116.0630 C.3       3 GLL5        0.0000 
     11 CA        104.7470    5.2820  115.5470 C.3       3 GLL5        0.0000 
     12 CA        102.6170    1.1420  117.2750 C.3       3 GLL5        0.0000 
     13 Zn        105.6680   -0.9430  117.2640 Zn        4 ZIL7        0.0000 
     14 Zn        104.7000    1.2960  118.4720 Zn        4 ZIL7        0.0000 
     15 N         103.9620    2.6050  120.9830 N.am      5 SEP1        0.0000 
     16 N         100.9910    0.7780  113.3180 N.am      5 SEP1        0.0000 
     17 N          98.5750    1.9700  114.2600 N.am      5 SEP1        0.0000 
     18 N          99.9530    8.3760  115.6510 N.am      5 SEP1        0.0000 
     19 O         101.7140   -1.0240  115.1840 O.2       6 ALP2        0.0000 
     20 CA        104.2870    3.9420  120.9250 C.3       7 GLP5        0.0000 
     21 CA        101.0810    8.1700  118.4480 C.3       7 GLP5        0.0000 
     22 CA         98.4540   -2.9090  119.9310 C.3       7 GLP5        0.0000 
     23 CA         98.4850    0.7730  116.8780 C.3       7 GLP5        0.0000 
     24 CA        105.4150    4.3540  120.2350 C.3       7 GLP5        0.0000 
     25 CA         99.9010    3.5760  112.9710 C.3       7 GLP5        0.0000 
     26 CA        104.4430    8.4200  113.1570 C.3       7 GLP5        0.0000 
     27 CA        108.2330    3.5750  113.7390 C.3       7 GLP5        0.0000 
     28 CA         96.1570    0.5600  126.0210 C.3       7 GLP5        0.0000 
     29 CA        104.3450    6.9380  112.8770 C.3       7 GLP5        0.0000 
     30 Zn        106.8370    0.6910  118.6800 Zn        8 ZIP7        0.0000 
     31 N         104.3310    1.9505  119.7275 N.am      9 SEC1        0.0000 
     32 N         100.7130    1.7375  114.6545 N.am      9 SEC1        0.0000 
     33 N          99.5050    2.3335  115.1255 N.am      9 SEC1        0.0000 
     34 N          99.5845    7.2775  116.2760 N.am      9 SEC1        0.0000 
     35 O         103.0740   -0.7235  116.1030 O.2      10 ALC2        0.0000 
     36 CA        103.3815    3.3045  119.0960 C.3      11 GLC5        0.0000 
     37 CA         99.8655    6.4330  118.9145 C.3      11 GLC5        0.0000 
     38 CA         97.7570   -1.2350  121.0855 C.3      11 GLC5        0.0000 
     39 CA         97.7165    1.4795  118.7280 C.3      11 GLC5        0.0000 
     40 CA        104.4985    4.5685  118.3190 C.3      11 GLC5        0.0000 
     41 CA        101.1115    4.5790  114.5170 C.3      11 GLC5        0.0000 
     42 CA        101.7015    6.8760  117.2555 C.3      11 GLC5        0.0000 
     43 CA        104.5950    6.8510  114.3520 C.3      11 GLC5        0.0000 
     44 CA        106.4900    4.4285  114.6430 C.3      11 GLC5        0.0000 
     45 CA        100.5157    1.3388  117.0745 C.3      11 GLC5        0.0000 
     46 CA         96.9200    0.6183  124.2330 C.3      11 GLC5        0.0000 
     47 CA        103.6485    6.0602  114.5550 C.3      11 GLC5        0.0000 
     48 Zn        106.2525   -0.1260  117.9720 Zn       12 ZIC7        0.0000 
     49 Zn        105.7685    0.9935  118.5760 Zn       12 ZIC7        0.0000 
@<TRIPOS>BOND
@<TRIPOS>SUBSTRUCTURE
     1 SEL1        1 GROUP        1 Z    SEL  0     ROOT SEL Z 0
     2 ALL2        4 GROUP        1 Z    ALL  0     **** ALL Z 1
     3 GLL5        5 GROUP        1 Z    GLL  0     **** GLL Z 4
     4 ZIL7       13 GROUP        1 Z    ZIL  0     **** ZIL Z 5
     5 SEP1       15 GROUP        1 Z    SEP  0     **** SEP Z 7
     6 ALP2       19 GROUP        1 Z    ALP  0     **** ALP Z 8
     7 GLP5       20 GROUP        1 Z    GLP  0     **** GLP Z 11
     8 ZIP7       30 GROUP        1 Z    ZIP  0     **** ZIP Z 12
     9 SEC1       31 GROUP        1 Z    SEC  0     **** SEC Z 14
    10 ALC2       35 GROUP        1 Z    ALC  0     **** ALC Z 15
    11 GLC5       36 GROUP        1 Z    GLC  0     **** GLC Z 18
    12 ZIC7       48 GROUP        1 Z    ZIC  0     **** ZIC Z 19
@<TRIPOS>SET

