1pwu_GM6_2_ligand
  -OEChem-08111718373D

 56 57  0     1  0  0  0  0  0999 V2000
   95.4917    0.7382  120.9097 H   0  0  0  0  0  0  0  0  0  0  0  0
   96.6539   -0.3571  122.6886 H   0  0  0  0  0  0  0  0  0  0  0  0
   96.4565    2.6388  119.8341 H   0  0  0  0  0  0  0  0  0  0  0  0
   98.7987    0.4603  123.3926 H   0  0  0  0  0  0  0  0  0  0  0  0
  100.8053    4.3569  121.2184 H   0  0  0  0  0  0  0  0  0  0  0  0
  102.4938    6.5555  116.2139 H   0  0  0  0  0  0  0  0  0  0  0  0
  102.0800    5.4309  115.1046 H   0  0  0  0  0  0  0  0  0  0  0  0
  101.5688    5.2817  116.6483 H   0  0  0  0  0  0  0  0  0  0  0  0
  104.8720    6.2633  115.6937 H   0  0  0  0  0  0  0  0  0  0  0  0
  105.5824    4.7972  115.8058 H   0  0  0  0  0  0  0  0  0  0  0  0
  104.5483    5.1119  114.5818 H   0  0  0  0  0  0  0  0  0  0  0  0
   95.9482    4.5303  115.3362 H   0  0  0  0  0  0  0  0  0  0  0  0
   96.1139    4.5239  116.9608 H   0  0  0  0  0  0  0  0  0  0  0  0
   96.3238    5.9105  116.1241 H   0  0  0  0  0  0  0  0  0  0  0  0
   97.6756    4.9206  119.3939 H   0  0  0  0  0  0  0  0  0  0  0  0
   99.1863    5.5312  119.5029 H   0  0  0  0  0  0  0  0  0  0  0  0
  101.9708    0.7651  117.9386 H   0  0  0  0  0  0  0  0  0  0  0  0
  102.3976    0.7963  116.3627 H   0  0  0  0  0  0  0  0  0  0  0  0
  102.9551    3.1363  115.2950 H   0  0  0  0  0  0  0  0  0  0  0  0
  104.2674    2.8266  116.2162 H   0  0  0  0  0  0  0  0  0  0  0  0
  102.7538    3.0211  118.1600 H   0  0  0  0  0  0  0  0  0  0  0  0
   98.4362    3.2523  117.8986 H   0  0  0  0  0  0  0  0  0  0  0  0
  103.8061    4.9389  117.3650 H   0  0  0  0  0  0  0  0  0  0  0  0
  100.6985    2.4891  122.8421 H   0  0  0  0  0  0  0  0  0  0  0  0
   98.2232    4.0910  115.1789 H   0  0  0  0  0  0  0  0  0  0  0  0
  100.9692    3.8932  118.8396 H   0  0  0  0  0  0  0  0  0  0  0  0
  103.8268   -0.8727  116.3670 H   0  0  0  0  0  0  0  0  0  0  0  0
   96.3850    1.0770  121.2050 C   0  0  0  0  0  0  0  0  0  0  0  0
   97.0600    0.4390  122.2400 C   0  0  0  0  0  0  0  0  0  0  0  0
   96.9480    2.1860  120.5780 C   0  0  0  0  0  0  0  0  0  0  0  0
   98.3060    0.9140  122.6500 C   0  0  0  0  0  0  0  0  0  0  0  0
  100.0480    3.7080  121.2920 C   0  0  0  0  0  0  0  0  0  0  0  0
   98.1900    2.6680  120.9800 C   0  0  0  0  0  0  0  0  0  0  0  0
   98.9590    3.7260  120.5320 C   0  0  0  0  0  0  0  0  0  0  0  0
   98.8560    2.0200  122.0200 C   0  0  0  0  0  0  0  0  0  0  0  0
  104.0280    0.6770  117.6480 C   0  0  0  0  0  0  0  0  0  0  0  0
  101.0040    3.0120  117.0360 C   0  0  0  0  0  0  0  0  0  0  0  0
   98.7080    5.0610  116.9080 C   0  0  0  0  0  0  0  0  0  0  0  0
  102.3220    5.5820  116.0630 C   0  0  0  0  0  0  0  0  0  0  0  0
  104.7470    5.2820  115.5470 C   0  0  0  0  0  0  0  0  0  0  0  0
   96.4530    4.9190  116.1070 C   0  0  0  0  0  0  0  0  0  0  0  0
   98.6500    4.6960  119.3810 C   0  0  1  0  0  0  0  0  0  0  0  0
  102.6170    1.1420  117.2750 C   0  0  2  0  0  0  0  0  0  0  0  0
  103.3770    3.2810  116.1900 C   0  0  2  0  0  0  0  0  0  0  0  0
  102.4760    2.6670  117.2670 C   0  0  1  0  0  0  0  0  0  0  0  0
   99.0020    4.0660  118.0320 C   0  0  2  0  0  0  0  0  0  0  0  0
  103.5820    4.7830  116.4030 C   0  0  2  0  0  0  0  0  0  0  0  0
   99.9900    2.7010  122.1690 N   0  0  0  0  0  0  0  0  0  0  0  0
   97.8820    4.6140  115.9600 N   0  0  0  0  0  0  0  0  0  0  0  0
  100.4170    3.6640  118.0380 N   0  0  0  0  0  0  0  0  0  0  0  0
  104.4340   -0.4230  117.0220 N   0  0  0  0  0  0  0  0  0  0  0  0
  105.6680   -0.9430  117.2640 O   0  0  0  0  0  0  0  0  0  0  0  0
  104.7000    1.2960  118.4720 O   0  0  0  0  0  0  0  0  0  0  0  0
  100.4350    2.6970  115.9910 O   0  0  0  0  0  0  0  0  0  0  0  0
   99.2160    6.1790  116.9010 O   0  0  0  0  0  0  0  0  0  0  0  0
  106.1177   -0.4067  117.9063 H   0  0  0  0  0  0  0  0  0  0  0  0
  1 28  1  0  0  0  0
  2 29  1  0  0  0  0
  3 30  1  0  0  0  0
  4 31  1  0  0  0  0
  5 32  1  0  0  0  0
  6 39  1  0  0  0  0
  7 39  1  0  0  0  0
  8 39  1  0  0  0  0
  9 40  1  0  0  0  0
 10 40  1  0  0  0  0
 11 40  1  0  0  0  0
 12 41  1  0  0  0  0
 13 41  1  0  0  0  0
 14 41  1  0  0  0  0
 15 42  1  0  0  0  0
 16 42  1  0  0  0  0
 17 43  1  0  0  0  0
 18 43  1  0  0  0  0
 19 44  1  0  0  0  0
 20 44  1  0  0  0  0
 21 45  1  0  0  0  0
 22 46  1  0  0  0  0
 23 47  1  0  0  0  0
 24 48  1  0  0  0  0
 25 49  1  0  0  0  0
 26 50  1  0  0  0  0
 27 51  1  0  0  0  0
 28 29  2  0  0  0  0
 28 30  1  0  0  0  0
 29 31  1  0  0  0  0
 30 33  2  0  0  0  0
 31 35  2  0  0  0  0
 32 34  2  0  0  0  0
 32 48  1  0  0  0  0
 33 34  1  0  0  0  0
 33 35  1  0  0  0  0
 34 42  1  0  0  0  0
 35 48  1  0  0  0  0
 36 43  1  0  0  0  0
 36 51  1  0  0  0  0
 36 53  2  0  0  0  0
 37 45  1  0  0  0  0
 37 50  1  0  0  0  0
 37 54  2  0  0  0  0
 38 46  1  0  0  0  0
 38 49  1  0  0  0  0
 38 55  2  0  0  0  0
 39 47  1  0  0  0  0
 40 47  1  0  0  0  0
 41 49  1  0  0  0  0
 42 46  1  0  0  0  0
 43 45  1  0  0  0  0
 44 45  1  0  0  0  0
 44 47  1  0  0  0  0
 46 50  1  0  0  0  0
 51 52  1  0  0  0  0
 52 56  1  0  0  0  0
M  END
> <scpdb_id>
1pwu_2

$$$$
