@<TRIPOS>MOLECULE
1pwu_GM6_2_ligand
   55    56     1     0     0
SMALL
NO_CHARGES


@<TRIPOS>ATOM
     1 OAG        105.6680    -0.9430   117.2640 O.3          1 GM62001  -1.0000
     2 NAF        104.4340    -0.4230   117.0220 N.am         1 GM62001   0.0000
     3 CAD        104.0280     0.6770   117.6480 C.2          1 GM62001   0.0000
     4 OAE        104.7000     1.2960   118.4720 O.2          1 GM62001   0.0000
     5 CAC        102.6170     1.1420   117.2750 C.3          1 GM62001   0.0000
     6 CAB        102.4760     2.6670   117.2670 C.3          1 GM62001   0.0000
     7 CAK        101.0040     3.0120   117.0360 C.2          1 GM62001   0.0000
     8 OAL        100.4350     2.6970   115.9910 O.2          1 GM62001   0.0000
     9 NAM        100.4170     3.6640   118.0380 N.am         1 GM62001   0.0000
    10 CAN         99.0020     4.0660   118.0320 C.3          1 GM62001   0.0000
    11 CAY         98.7080     5.0610   116.9080 C.2          1 GM62001   0.0000
    12 OAZ         99.2160     6.1790   116.9010 O.2          1 GM62001   0.0000
    13 NBB         97.8820     4.6140   115.9600 N.am         1 GM62001   0.0000
    14 CBA         96.4530     4.9190   116.1070 C.3          1 GM62001   0.0000
    15 CAO         98.6500     4.6960   119.3810 C.3          1 GM62001   0.0000
    16 CAP         98.9590     3.7260   120.5320 C.2          1 GM62001   0.0000
    17 CAT        100.0480     3.7080   121.2920 C.2          1 GM62001   0.0000
    18 NAU         99.9900     2.7010   122.1690 N.pl3        1 GM62001   0.0000
    19 CAR         98.8560     2.0200   122.0200 C.ar         1 GM62001   0.0000
    20 CAV         98.3060     0.9140   122.6500 C.ar         1 GM62001   0.0000
    21 CAX         97.0600     0.4390   122.2400 C.ar         1 GM62001   0.0000
    22 CAW         96.3850     1.0770   121.2050 C.ar         1 GM62001   0.0000
    23 CAS         96.9480     2.1860   120.5780 C.ar         1 GM62001   0.0000
    24 CAQ         98.1900     2.6680   120.9800 C.ar         1 GM62001   0.0000
    25 CAA        103.3770     3.2810   116.1900 C.3          1 GM62001   0.0000
    26 CAH        103.5820     4.7830   116.4030 C.3          1 GM62001   0.0000
    27 CAJ        102.3220     5.5820   116.0630 C.3          1 GM62001   0.0000
    28 CAI        104.7470     5.2820   115.5470 C.3          1 GM62001   0.0000
    29 HAF        103.8268    -0.8727   116.3670 H            1 GM62001   0.0000
    30 HAC1       101.9708     0.7651   117.9386 H            1 GM62001   0.0000
    31 HAC2       102.3976     0.7963   116.3627 H            1 GM62001   0.0000
    32 HAB        102.7538     3.0211   118.1600 H            1 GM62001   0.0000
    33 HAM        100.9692     3.8932   118.8396 H            1 GM62001   0.0000
    34 HAN         98.4362     3.2523   117.8986 H            1 GM62001   0.0000
    35 HBB         98.2232     4.0910   115.1789 H            1 GM62001   0.0000
    36 HBA1        95.9482     4.5303   115.3362 H            1 GM62001   0.0000
    37 HBA2        96.1139     4.5239   116.9608 H            1 GM62001   0.0000
    38 HBA3        96.3238     5.9105   116.1241 H            1 GM62001   0.0000
    39 HAO1        97.6756     4.9206   119.3939 H            1 GM62001   0.0000
    40 HAO2        99.1863     5.5312   119.5029 H            1 GM62001   0.0000
    41 HAT        100.8053     4.3569   121.2184 H            1 GM62001   0.0000
    42 HAU        100.6985     2.4891   122.8421 H            1 GM62001   0.0000
    43 HAV         98.7987     0.4603   123.3926 H            1 GM62001   0.0000
    44 HAX         96.6539    -0.3571   122.6886 H            1 GM62001   0.0000
    45 HAW         95.4917     0.7382   120.9097 H            1 GM62001   0.0000
    46 HAS         96.4565     2.6388   119.8341 H            1 GM62001   0.0000
    47 HAA1       102.9551     3.1363   115.2950 H            1 GM62001   0.0000
    48 HAA2       104.2674     2.8266   116.2162 H            1 GM62001   0.0000
    49 HAH        103.8061     4.9389   117.3650 H            1 GM62001   0.0000
    50 HAJ1       102.4938     6.5555   116.2139 H            1 GM62001   0.0000
    51 HAJ2       102.0800     5.4309   115.1046 H            1 GM62001   0.0000
    52 HAJ3       101.5688     5.2817   116.6483 H            1 GM62001   0.0000
    53 HAI1       104.8720     6.2633   115.6937 H            1 GM62001   0.0000
    54 HAI2       105.5824     4.7972   115.8058 H            1 GM62001   0.0000
    55 HAI3       104.5483     5.1119   114.5818 H            1 GM62001   0.0000
@<TRIPOS>BOND
     1    1    2       1
     2    2    3      am
     3    3    4       2
     4    3    5       1
     5    5    6       1
     6    6    7       1
     7    6   25       1
     8    7    8       2
     9    7    9      am
    10    9   10       1
    11   10   11       1
    12   10   15       1
    13   11   12       2
    14   11   13      am
    15   13   14       1
    16   15   16       1
    17   16   17       2
    18   16   24       1
    19   17   18       1
    20   18   19       1
    21   19   20      ar
    22   19   24      ar
    23   20   21      ar
    24   21   22      ar
    25   22   23      ar
    26   23   24      ar
    27   25   26       1
    28   26   27       1
    29   26   28       1
    30   28   55       1
    31    2   29       1
    32    5   30       1
    33    5   31       1
    34    6   32       1
    35    9   33       1
    36   10   34       1
    37   13   35       1
    38   14   36       1
    39   14   37       1
    40   14   38       1
    41   15   39       1
    42   15   40       1
    43   17   41       1
    44   18   42       1
    45   20   43       1
    46   21   44       1
    47   22   45       1
    48   23   46       1
    49   25   47       1
    50   25   48       1
    51   26   49       1
    52   27   50       1
    53   27   51       1
    54   27   52       1
    55   28   53       1
    56   28   54       1
@<TRIPOS>SUBSTRUCTURE
     1 GM62001     1 GROUP             4 B     GM6     0 **** GM6 B2001
