#    Name: 10975
#    Modification time : Tue Aug  8 22:38:29 2017

@<TRIPOS>MOLECULE
10975
   81     0    12     0     0
SMALL
NO_CHARGES


@<TRIPOS>ATOM
      1 N          90.0830   91.3430   50.8880 N.am      1 SEL1        0.0000 
      2 N          91.8540   89.6050   51.6410 N.am      1 SEL1        0.0000 
      3 N          92.2570   88.1210   44.2300 N.am      1 SEL1        0.0000 
      4 N          96.1110   89.4830   48.0300 N.am      1 SEL1        0.0000 
      5 N          87.7120   87.4350   51.0000 N.am      1 SEL1        0.0000 
      6 N          87.4460   89.9190   51.0990 N.am      1 SEL1        0.0000 
      7 N          88.4280   88.6270   53.0050 N.am      1 SEL1        0.0000 
      8 N          89.0240   84.7170   53.0300 N.am      1 SEL1        0.0000 
      9 N          88.2570   84.1310   55.6550 N.am      1 SEL1        0.0000 
     10 N          81.7260   88.2820   57.4910 N.am      1 SEL1        0.0000 
     11 O          90.5040   87.3960   46.2170 O.2       2 ALL2        0.0000 
     12 O          92.2570   88.1210   44.2300 O.2       2 ALL2        0.0000 
     13 O          98.8550   90.9450   47.6610 O.2       2 ALL2        0.0000 
     14 O          88.2570   84.1310   55.6550 O.2       2 ALL2        0.0000 
     15 O          83.0870   87.2950   58.9080 O.2       2 ALL2        0.0000 
     16 CA         90.3740   89.9780   48.2010 C.3       3 GLL5        0.0000 
     17 CA         91.0470   89.6330   46.8330 C.3       3 GLL5        0.0000 
     18 CA         91.5940   88.1950   46.6260 C.3       3 GLL5        0.0000 
     19 CA         93.2060   89.7850   45.7530 C.3       3 GLL5        0.0000 
     20 CA         89.5870   87.9740   53.5470 C.3       3 GLL5        0.0000 
     21 CA         87.5230   85.1160   54.9580 C.3       3 GLL5        0.0000 
     22 CA         83.7730   87.6600   56.5580 C.3       3 GLL5        0.0000 
     23 CA         84.3230   88.1130   54.1770 C.3       3 GLL5        0.0000 
     24 CA         89.1450   86.8310   54.4150 C.3       3 GLL5        0.0000 
     25 CA         88.2780   85.6870   53.7710 C.3       3 GLL5        0.0000 
     26 CZ         84.6713   87.5855   55.4615 C.ar      4 PHL6        0.0000 
     27 N          91.2830   94.5170   51.3540 N.am      5 SEP1        0.0000 
     28 N          93.1830   87.1380   51.6580 N.am      5 SEP1        0.0000 
     29 N          92.8570   85.5510   43.8570 N.am      5 SEP1        0.0000 
     30 N          97.7130   88.2390   50.1350 N.am      5 SEP1        0.0000 
     31 N          86.3680   88.9470   48.8000 N.am      5 SEP1        0.0000 
     32 N          85.9060   91.6980   52.6290 N.am      5 SEP1        0.0000 
     33 N          88.3170   91.5850   54.3480 N.am      5 SEP1        0.0000 
     34 N          87.5700   82.1820   52.4380 N.am      5 SEP1        0.0000 
     35 N          89.8420   81.9340   53.9890 N.am      5 SEP1        0.0000 
     36 N          79.7340   89.1930   59.4010 N.am      5 SEP1        0.0000 
     37 O          89.9410   89.2120   43.7030 O.2       6 ALP2        0.0000 
     38 O          99.0490   90.0440   50.2150 O.2       6 ALP2        0.0000 
     39 O          87.7400   84.1600   58.2630 O.2       6 ALP2        0.0000 
     40 O          82.2380   88.3610   61.3330 O.2       6 ALP2        0.0000 
     41 O          85.8180   87.0640   59.9000 O.2       6 ALP2        0.0000 
     42 CA         93.8160   92.2060   49.5430 C.3       7 GLP5        0.0000 
     43 CA         89.8370   93.3090   45.5940 C.3       7 GLP5        0.0000 
     44 CA         86.7780   90.2640   48.4830 C.3       7 GLP5        0.0000 
     45 CA         91.5920   86.1030   50.0940 C.3       7 GLP5        0.0000 
     46 CA         90.5720   92.4740   44.5700 C.3       7 GLP5        0.0000 
     47 CA         84.1550   82.7990   55.3600 C.3       7 GLP5        0.0000 
     48 CA         87.0510   90.1840   57.0050 C.3       7 GLP5        0.0000 
     49 CA         91.0380   87.6690   57.7410 C.3       7 GLP5        0.0000 
     50 CA         85.7880   83.8300   52.0340 C.3       7 GLP5        0.0000 
     51 CZ         84.2567   91.0398   56.8732 C.ar      8 PHP6        0.0000 
     52 N          90.6830   92.9300   51.1210 N.am      9 SEC1        0.0000 
     53 N          92.5185   88.3715   51.6495 N.am      9 SEC1        0.0000 
     54 N          92.5570   86.8360   44.0435 N.am      9 SEC1        0.0000 
     55 N          96.9120   88.8610   49.0825 N.am      9 SEC1        0.0000 
     56 N          87.0400   88.1910   49.9000 N.am      9 SEC1        0.0000 
     57 N          86.6760   90.8085   51.8640 N.am      9 SEC1        0.0000 
     58 N          88.3725   90.1060   53.6765 N.am      9 SEC1        0.0000 
     59 N          88.2970   83.4495   52.7340 N.am      9 SEC1        0.0000 
     60 N          89.0495   83.0325   54.8220 N.am      9 SEC1        0.0000 
     61 N          80.7300   88.7375   58.4460 N.am      9 SEC1        0.0000 
     62 O          90.2225   88.3040   44.9600 O.2      10 ALC2        0.0000 
     63 O          91.0990   88.6665   43.9665 O.2      10 ALC2        0.0000 
     64 O          98.9520   90.4945   48.9380 O.2      10 ALC2        0.0000 
     65 O          87.9985   84.1455   56.9590 O.2      10 ALC2        0.0000 
     66 O          82.6625   87.8280   60.1205 O.2      10 ALC2        0.0000 
     67 O          84.4525   87.1795   59.4040 O.2      10 ALC2        0.0000 
     68 CA         92.0950   91.0920   48.8720 C.3      11 GLC5        0.0000 
     69 CA         90.1055   91.6435   46.8975 C.3      11 GLC5        0.0000 
     70 CA         88.5760   90.1210   48.3420 C.3      11 GLC5        0.0000 
     71 CA         90.9830   88.0405   49.1475 C.3      11 GLC5        0.0000 
     72 CA         90.8095   91.0535   45.7015 C.3      11 GLC5        0.0000 
     73 CA         91.5930   87.1490   48.3600 C.3      11 GLC5        0.0000 
     74 CA         91.8890   91.1295   45.1615 C.3      11 GLC5        0.0000 
     75 CA         90.5895   87.0385   51.8205 C.3      11 GLC5        0.0000 
     76 CA         85.8390   83.9575   55.1590 C.3      11 GLC5        0.0000 
     77 CA         85.4120   88.9220   56.7815 C.3      11 GLC5        0.0000 
     78 CA         85.6870   89.1485   55.5910 C.3      11 GLC5        0.0000 
     79 CA         90.2020   87.5358   55.8610 C.3      11 GLC5        0.0000 
     80 CA         86.8442   84.6157   53.1992 C.3      11 GLC5        0.0000 
     81 CZ         84.4640   89.3127   56.1673 C.ar     12 PHC6        0.0000 
@<TRIPOS>BOND
@<TRIPOS>SUBSTRUCTURE
     1 SEL1        1 GROUP        1 Z    SEL  0     ROOT SEL Z 0
     2 ALL2       11 GROUP        1 Z    ALL  0     **** ALL Z 1
     3 GLL5       16 GROUP        1 Z    GLL  0     **** GLL Z 4
     4 PHL6       26 GROUP        1 Z    PHL  0     **** PHL Z 6
     5 SEP1       27 GROUP        1 Z    SEP  0     **** SEP Z 7
     6 ALP2       37 GROUP        1 Z    ALP  0     **** ALP Z 8
     7 GLP5       42 GROUP        1 Z    GLP  0     **** GLP Z 11
     8 PHP6       51 GROUP        1 Z    PHP  0     **** PHP Z 13
     9 SEC1       52 GROUP        1 Z    SEC  0     **** SEC Z 14
    10 ALC2       62 GROUP        1 Z    ALC  0     **** ALC Z 15
    11 GLC5       68 GROUP        1 Z    GLC  0     **** GLC Z 18
    12 PHC6       81 GROUP        1 Z    PHC  0     **** PHC Z 20
@<TRIPOS>SET

