1ye6_NAD_4_ligand
  -OEChem-08111718373D

 70 74  0     1  0  0  0  0  0999 V2000
   84.0793   88.4834   53.2807 H   0  0  0  0  0  0  0  0  0  0  0  0
   82.4940   88.6299   55.1122 H   0  0  0  0  0  0  0  0  0  0  0  0
   86.2504   87.4411   53.6018 H   0  0  0  0  0  0  0  0  0  0  0  0
   85.2663   86.6884   57.6592 H   0  0  0  0  0  0  0  0  0  0  0  0
   96.9238   92.7192   44.1227 H   0  0  0  0  0  0  0  0  0  0  0  0
   94.2805   88.5731   48.1899 H   0  0  0  0  0  0  0  0  0  0  0  0
   91.9799   87.8446   47.4794 H   0  0  0  0  0  0  0  0  0  0  0  0
   87.6145   86.1088   53.1530 H   0  0  0  0  0  0  0  0  0  0  0  0
   93.4187   87.6952   45.7880 H   0  0  0  0  0  0  0  0  0  0  0  0
   86.6517   84.7332   54.6511 H   0  0  0  0  0  0  0  0  0  0  0  0
   90.3244   89.7403   46.1501 H   0  0  0  0  0  0  0  0  0  0  0  0
   89.9823   86.3923   54.7413 H   0  0  0  0  0  0  0  0  0  0  0  0
   93.3789   90.1753   44.8487 H   0  0  0  0  0  0  0  0  0  0  0  0
   87.3308   85.9753   56.7768 H   0  0  0  0  0  0  0  0  0  0  0  0
   89.9883   90.8991   48.1477 H   0  0  0  0  0  0  0  0  0  0  0  0
   89.6419   89.3196   48.3756 H   0  0  0  0  0  0  0  0  0  0  0  0
   90.1137   88.6253   54.0932 H   0  0  0  0  0  0  0  0  0  0  0  0
   90.1559   87.6277   52.8011 H   0  0  0  0  0  0  0  0  0  0  0  0
   99.6768   91.4681   47.4353 H   0  0  0  0  0  0  0  0  0  0  0  0
   98.8471   90.3476   48.4629 H   0  0  0  0  0  0  0  0  0  0  0  0
   82.4263   87.3695   59.6549 H   0  0  0  0  0  0  0  0  0  0  0  0
   83.9766   86.8672   59.0681 H   0  0  0  0  0  0  0  0  0  0  0  0
   90.1271   87.7576   45.3643 H   0  0  0  0  0  0  0  0  0  0  0  0
   89.0950   85.0087   52.0761 H   0  0  0  0  0  0  0  0  0  0  0  0
   91.5468   88.7844   43.9943 H   0  0  0  0  0  0  0  0  0  0  0  0
   87.9939   84.1396   56.6197 H   0  0  0  0  0  0  0  0  0  0  0  0
   84.3230   88.1130   54.1770 C   0  0  0  0  0  0  0  0  0  0  0  0
   83.3890   88.2050   55.2480 C   0  0  0  0  0  0  0  0  0  0  0  0
   85.5990   87.5030   54.3580 C   0  0  0  0  0  0  0  0  0  0  0  0
   85.0180   87.0560   56.7630 C   0  0  0  0  0  0  0  0  0  0  0  0
   96.8010   92.0960   44.8950 C   0  0  0  0  0  0  0  0  0  0  0  0
   94.8630   89.2020   47.6750 C   0  0  0  0  0  0  0  0  0  0  0  0
   83.7730   87.6600   56.5580 C   0  0  0  0  0  0  0  0  0  0  0  0
   96.5220   90.3840   47.0540 C   0  0  0  0  0  0  0  0  0  0  0  0
   95.4840   90.6130   46.1310 C   0  0  0  0  0  0  0  0  0  0  0  0
   97.7590   91.0450   46.8850 C   0  0  0  0  0  0  0  0  0  0  0  0
   82.7890   87.7550   57.7270 C   0  0  0  0  0  0  0  0  0  0  0  0
   91.5940   88.1950   46.6260 C   0  0  1  0  0  0  0  0  0  0  0  0
   88.2780   85.6870   53.7710 C   0  0  1  0  0  0  0  0  0  0  0  0
   92.6800   88.3350   45.5760 C   0  0  2  0  0  0  0  0  0  0  0  0
   87.5230   85.1160   54.9580 C   0  0  2  0  0  0  0  0  0  0  0  0
   91.0470   89.6330   46.8330 C   0  0  1  0  0  0  0  0  0  0  0  0
   89.1450   86.8310   54.4150 C   0  0  1  0  0  0  0  0  0  0  0  0
   93.2060   89.7850   45.7530 C   0  0  2  0  0  0  0  0  0  0  0  0
   87.2740   86.2920   55.8300 C   0  0  2  0  0  0  0  0  0  0  0  0
   90.3740   89.9780   48.2010 C   0  0  1  0  0  0  0  0  0  0  0  0
   89.5870   87.9740   53.5470 C   0  0  1  0  0  0  0  0  0  0  0  0
   95.5780   91.4570   45.0410 N   0  0  0  0  0  0  0  0  0  0  0  0
   97.8720   91.9090   45.7790 N   0  0  0  0  0  0  0  0  0  0  0  0
   96.1110   89.4830   48.0300 N   0  0  0  0  0  0  0  0  0  0  0  0
   94.4390   89.8520   46.5350 N   0  0  0  0  0  0  0  0  0  0  0  0
   85.9260   86.9760   55.6650 N   0  3  0  0  0  0  0  0  0  0  0  0
   98.8550   90.9450   47.6610 N   0  0  0  0  0  0  0  0  0  0  0  0
   83.0870   87.2950   58.9080 N   0  0  0  0  0  0  0  0  0  0  0  0
   91.8540   89.6050   51.6410 O   0  5  0  0  0  0  0  0  0  0  0  0
   87.4460   89.9190   51.0990 O   0  5  0  0  0  0  0  0  0  0  0  0
   81.7260   88.2820   57.4910 O   0  0  0  0  0  0  0  0  0  0  0  0
   90.0830   91.3430   50.8880 O   0  0  0  0  0  0  0  0  0  0  0  0
   87.7120   87.4350   51.0000 O   0  0  0  0  0  0  0  0  0  0  0  0
   92.1550   90.5220   46.3750 O   0  0  0  0  0  0  0  0  0  0  0  0
   88.4040   87.2270   55.6120 O   0  0  0  0  0  0  0  0  0  0  0  0
   90.5040   87.3960   46.2170 O   0  0  0  0  0  0  0  0  0  0  0  0
   89.0240   84.7170   53.0300 O   0  0  0  0  0  0  0  0  0  0  0  0
   92.2570   88.1210   44.2300 O   0  0  0  0  0  0  0  0  0  0  0  0
   88.2570   84.1310   55.6550 O   0  0  0  0  0  0  0  0  0  0  0  0
   91.3040   89.9300   49.2820 O   0  0  0  0  0  0  0  0  0  0  0  0
   88.4280   88.6270   53.0050 O   0  0  0  0  0  0  0  0  0  0  0  0
   89.6740   88.9250   50.8240 O   0  0  0  0  0  0  0  0  0  0  0  0
   90.7350   90.1020   50.7670 P   0  0  1  0  0  0  0  0  0  0  0  0
   88.2320   88.7220   51.4450 P   0  0  2  0  0  0  0  0  0  0  0  0
  1 27  1  0  0  0  0
  2 28  1  0  0  0  0
  3 29  1  0  0  0  0
  4 30  1  0  0  0  0
  5 31  1  0  0  0  0
  6 32  1  0  0  0  0
  7 38  1  0  0  0  0
  8 39  1  0  0  0  0
  9 40  1  0  0  0  0
 10 41  1  0  0  0  0
 11 42  1  0  0  0  0
 12 43  1  0  0  0  0
 13 44  1  0  0  0  0
 14 45  1  0  0  0  0
 15 46  1  0  0  0  0
 16 46  1  0  0  0  0
 17 47  1  0  0  0  0
 18 47  1  0  0  0  0
 19 53  1  0  0  0  0
 20 53  1  0  0  0  0
 21 54  1  0  0  0  0
 22 54  1  0  0  0  0
 23 62  1  0  0  0  0
 24 63  1  0  0  0  0
 25 64  1  0  0  0  0
 26 65  1  0  0  0  0
 27 28  1  0  0  0  0
 27 29  2  0  0  0  0
 28 33  2  0  0  0  0
 29 52  1  0  0  0  0
 30 33  1  0  0  0  0
 30 52  2  0  0  0  0
 31 48  1  0  0  0  0
 31 49  2  0  0  0  0
 32 50  2  0  0  0  0
 32 51  1  0  0  0  0
 33 37  1  0  0  0  0
 34 35  1  0  0  0  0
 34 36  2  0  0  0  0
 34 50  1  0  0  0  0
 35 48  2  0  0  0  0
 35 51  1  0  0  0  0
 36 49  1  0  0  0  0
 36 53  1  0  0  0  0
 37 54  1  0  0  0  0
 37 57  2  0  0  0  0
 38 40  1  0  0  0  0
 38 42  1  0  0  0  0
 38 62  1  0  0  0  0
 39 41  1  0  0  0  0
 39 43  1  0  0  0  0
 39 63  1  0  0  0  0
 40 44  1  0  0  0  0
 40 64  1  0  0  0  0
 41 45  1  0  0  0  0
 41 65  1  0  0  0  0
 42 46  1  0  0  0  0
 42 60  1  0  0  0  0
 43 47  1  0  0  0  0
 43 61  1  0  0  0  0
 44 51  1  0  0  0  0
 44 60  1  0  0  0  0
 45 52  1  0  0  0  0
 45 61  1  0  0  0  0
 46 66  1  0  0  0  0
 47 67  1  0  0  0  0
 55 69  1  0  0  0  0
 56 70  1  0  0  0  0
 58 69  2  0  0  0  0
 59 70  2  0  0  0  0
 66 69  1  0  0  0  0
 67 70  1  0  0  0  0
 68 69  1  0  0  0  0
 68 70  1  0  0  0  0
M  CHG  3  55  -1  56  -1  52   1
M  END
> <scpdb_id>
1ye6_4

$$$$
