@<TRIPOS>MOLECULE
1ye6_NAD_4_ligand
   70    74     1     0     0
SMALL
NO_CHARGES


@<TRIPOS>ATOM
     1 PA          90.7350    90.1020    50.7670 P.3          1 NAD1003   0.0000
     2 O1A         90.0830    91.3430    50.8880 O.co2        1 NAD1003   0.0000
     3 O2A         91.8540    89.6050    51.6410 O.co2        1 NAD1003  -1.0000
     4 O5B         91.3040    89.9300    49.2820 O.3          1 NAD1003   0.0000
     5 C5B         90.3740    89.9780    48.2010 C.3          1 NAD1003   0.0000
     6 C4B         91.0470    89.6330    46.8330 C.3          1 NAD1003   0.0000
     7 O4B         92.1550    90.5220    46.3750 O.3          1 NAD1003   0.0000
     8 C3B         91.5940    88.1950    46.6260 C.3          1 NAD1003   0.0000
     9 O3B         90.5040    87.3960    46.2170 O.3          1 NAD1003   0.0000
    10 C2B         92.6800    88.3350    45.5760 C.3          1 NAD1003   0.0000
    11 O2B         92.2570    88.1210    44.2300 O.3          1 NAD1003   0.0000
    12 C1B         93.2060    89.7850    45.7530 C.3          1 NAD1003   0.0000
    13 N9A         94.4390    89.8520    46.5350 N.pl3        1 NAD1003   0.0000
    14 C8A         94.8630    89.2020    47.6750 C.2          1 NAD1003   0.0000
    15 N7A         96.1110    89.4830    48.0300 N.2          1 NAD1003   0.0000
    16 C5A         96.5220    90.3840    47.0540 C.ar         1 NAD1003   0.0000
    17 C6A         97.7590    91.0450    46.8850 C.ar         1 NAD1003   0.0000
    18 N6A         98.8550    90.9450    47.6610 N.pl3        1 NAD1003   0.0000
    19 N1A         97.8720    91.9090    45.7790 N.ar         1 NAD1003   0.0000
    20 C2A         96.8010    92.0960    44.8950 C.ar         1 NAD1003   0.0000
    21 N3A         95.5780    91.4570    45.0410 N.ar         1 NAD1003   0.0000
    22 C4A         95.4840    90.6130    46.1310 C.ar         1 NAD1003   0.0000
    23 O3          89.6740    88.9250    50.8240 O.3          1 NAD1003   0.0000
    24 PN          88.2320    88.7220    51.4450 P.3          1 NAD1003   0.0000
    25 O1N         87.7120    87.4350    51.0000 O.co2        1 NAD1003   0.0000
    26 O2N         87.4460    89.9190    51.0990 O.co2        1 NAD1003  -1.0000
    27 O5D         88.4280    88.6270    53.0050 O.3          1 NAD1003   0.0000
    28 C5D         89.5870    87.9740    53.5470 C.3          1 NAD1003   0.0000
    29 C4D         89.1450    86.8310    54.4150 C.3          1 NAD1003   0.0000
    30 O4D         88.4040    87.2270    55.6120 O.3          1 NAD1003   0.0000
    31 C3D         88.2780    85.6870    53.7710 C.3          1 NAD1003   0.0000
    32 O3D         89.0240    84.7170    53.0300 O.3          1 NAD1003   0.0000
    33 C2D         87.5230    85.1160    54.9580 C.3          1 NAD1003   0.0000
    34 O2D         88.2570    84.1310    55.6550 O.3          1 NAD1003   0.0000
    35 C1D         87.2740    86.2920    55.8300 C.3          1 NAD1003   0.0000
    36 N1N         85.9260    86.9760    55.6650 N.ar         1 NAD1003   1.0000
    37 C2N         85.0180    87.0560    56.7630 C.ar         1 NAD1003   0.0000
    38 C3N         83.7730    87.6600    56.5580 C.ar         1 NAD1003   0.0000
    39 C7N         82.7890    87.7550    57.7270 C.2          1 NAD1003   0.0000
    40 O7N         81.7260    88.2820    57.4910 O.2          1 NAD1003   0.0000
    41 N7N         83.0870    87.2950    58.9080 N.am         1 NAD1003   0.0000
    42 C4N         83.3890    88.2050    55.2480 C.ar         1 NAD1003   0.0000
    43 C5N         84.3230    88.1130    54.1770 C.ar         1 NAD1003   0.0000
    44 C6N         85.5990    87.5030    54.3580 C.ar         1 NAD1003   0.0000
    45 H5B1        89.9883    90.8991    48.1477 H            1 NAD1003   0.0000
    46 H5B2        89.6419    89.3196    48.3756 H            1 NAD1003   0.0000
    47 H4B         90.3244    89.7403    46.1501 H            1 NAD1003   0.0000
    48 H3B         91.9799    87.8446    47.4794 H            1 NAD1003   0.0000
    49 H5          90.1271    87.7576    45.3643 H            1 NAD1003   0.0000
    50 H2B         93.4187    87.6952    45.7880 H            1 NAD1003   0.0000
    51 H7          91.5468    88.7844    43.9943 H            1 NAD1003   0.0000
    52 H1B         93.3789    90.1753    44.8487 H            1 NAD1003   0.0000
    53 H8A         94.2805    88.5731    48.1899 H            1 NAD1003   0.0000
    54 H6A1        99.6768    91.4681    47.4353 H            1 NAD1003   0.0000
    55 H6A2        98.8471    90.3476    48.4629 H            1 NAD1003   0.0000
    56 H2A         96.9238    92.7192    44.1227 H            1 NAD1003   0.0000
    57 H5D1        90.1137    88.6253    54.0932 H            1 NAD1003   0.0000
    58 H5D2        90.1559    87.6277    52.8011 H            1 NAD1003   0.0000
    59 H4D         89.9823    86.3923    54.7413 H            1 NAD1003   0.0000
    60 H3D         87.6145    86.1088    53.1530 H            1 NAD1003   0.0000
    61 H17         89.0950    85.0087    52.0761 H            1 NAD1003   0.0000
    62 H2D         86.6517    84.7332    54.6511 H            1 NAD1003   0.0000
    63 H19         87.9939    84.1396    56.6197 H            1 NAD1003   0.0000
    64 H1D         87.3308    85.9753    56.7768 H            1 NAD1003   0.0000
    65 H2N         85.2663    86.6884    57.6592 H            1 NAD1003   0.0000
    66 H7N1        82.4263    87.3695    59.6549 H            1 NAD1003   0.0000
    67 H7N2        83.9766    86.8672    59.0681 H            1 NAD1003   0.0000
    68 H4N         82.4940    88.6299    55.1122 H            1 NAD1003   0.0000
    69 H5N         84.0793    88.4834    53.2807 H            1 NAD1003   0.0000
    70 H6N         86.2504    87.4411    53.6018 H            1 NAD1003   0.0000
@<TRIPOS>BOND
     1    1    2      ar
     2    1    3      ar
     3    1    4       1
     4    1   23       1
     5    4    5       1
     6    5    6       1
     7    6    7       1
     8    6    8       1
     9    7   12       1
    10    8    9       1
    11    8   10       1
    12   10   11       1
    13   10   12       1
    14   12   13       1
    15   13   14       1
    16   13   22       1
    17   14   15       2
    18   15   16       1
    19   16   17      ar
    20   16   22      ar
    21   17   18       1
    22   17   19      ar
    23   19   20      ar
    24   20   21      ar
    25   21   22      ar
    26   23   24       1
    27   24   25      ar
    28   24   26      ar
    29   24   27       1
    30   27   28       1
    31   28   29       1
    32   29   30       1
    33   29   31       1
    34   30   35       1
    35   31   32       1
    36   31   33       1
    37   33   34       1
    38   33   35       1
    39   35   36       1
    40   36   37      ar
    41   36   44      ar
    42   37   38      ar
    43   38   39       1
    44   38   42      ar
    45   39   40       2
    46   39   41      am
    47   42   43      ar
    48   43   44      ar
    49   44   70       1
    50    5   45       1
    51    5   46       1
    52    6   47       1
    53    8   48       1
    54    9   49       1
    55   10   50       1
    56   11   51       1
    57   12   52       1
    58   14   53       1
    59   18   54       1
    60   18   55       1
    61   20   56       1
    62   43   69       1
    63   28   57       1
    64   28   58       1
    65   29   59       1
    66   31   60       1
    67   32   61       1
    68   33   62       1
    69   34   63       1
    70   35   64       1
    71   37   65       1
    72   41   66       1
    73   41   67       1
    74   42   68       1
@<TRIPOS>SUBSTRUCTURE
     1 NAD1003     1 GROUP             4 D     NAD     0 **** NAD D1003
