#    Name: 21301
#    Modification time : Tue Aug  8 20:03:19 2017

@<TRIPOS>MOLECULE
21301
   37     0     9     0     0
SMALL
NO_CHARGES


@<TRIPOS>ATOM
      1 N          37.1420    0.9450   21.4090 N.am      1 SEL1        0.0000 
      2 N          38.0470    0.2840   19.5260 N.am      1 SEL1        0.0000 
      3 N          40.0290    5.2120   21.3060 N.am      1 SEL1        0.0000 
      4 N          54.4190   -1.8160   21.1720 N.am      1 SEL1        0.0000 
      5 NZ         40.0290    5.2120   21.3060 N.4       2 LYL3        0.0000 
      6 NZ         39.7600    5.6830   19.1710 N.4       2 LYL3        0.0000 
      7 CA         38.8340    2.3340   20.5600 C.3       3 GLL5        0.0000 
      8 CA         45.4330    1.8360   16.1920 C.3       3 GLL5        0.0000 
      9 CA         48.5670   -1.8280   17.2730 C.3       3 GLL5        0.0000 
     10 CA         49.0990   -1.4580   21.0580 C.3       3 GLL5        0.0000 
     11 CA         51.8440   -1.5040   20.0840 C.3       3 GLL5        0.0000 
     12 N          36.5670   -1.2490   22.5950 N.am      4 SEP1        0.0000 
     13 N          36.5410    1.0740   24.1110 N.am      4 SEP1        0.0000 
     14 N          35.8070   -1.6080   19.5420 N.am      4 SEP1        0.0000 
     15 N          38.7040    7.6150   22.3850 N.am      4 SEP1        0.0000 
     16 N          54.7650   -4.0120   23.3210 N.am      4 SEP1        0.0000 
     17 NZ         38.7040    7.6150   22.3850 N.4       5 LYP3        0.0000 
     18 CA         35.0010    4.3070   20.0050 C.3       6 GLP5        0.0000 
     19 CA         38.6090    3.5050   24.0590 C.3       6 GLP5        0.0000 
     20 CA         40.8230   -0.1970   23.0970 C.3       6 GLP5        0.0000 
     21 CA         48.6500    3.1400   14.1040 C.3       6 GLP5        0.0000 
     22 CA         52.0810    0.2180   15.9540 C.3       6 GLP5        0.0000 
     23 CA         48.9000   -5.0200   23.2630 C.3       6 GLP5        0.0000 
     24 N          36.8545   -0.1520   22.0020 N.am      7 SEC1        0.0000 
     25 N          36.8415    1.0095   22.7600 N.am      7 SEC1        0.0000 
     26 N          36.9270   -0.6620   19.5340 N.am      7 SEC1        0.0000 
     27 N          39.3665    6.4135   21.8455 N.am      7 SEC1        0.0000 
     28 N          54.5920   -2.9140   22.2465 N.am      7 SEC1        0.0000 
     29 NZ         39.3665    6.4135   21.8455 N.4       8 LYC3        0.0000 
     30 NZ         39.2320    6.6490   20.7780 N.4       8 LYC3        0.0000 
     31 CA         36.9175    3.3205   20.2825 C.3       9 GLC5        0.0000 
     32 CA         38.7215    2.9195   22.3095 C.3       9 GLC5        0.0000 
     33 CA         39.8285    1.0685   21.8285 C.3       9 GLC5        0.0000 
     34 CA         47.0415    2.4880   15.1480 C.3       9 GLC5        0.0000 
     35 CA         50.3240   -0.8050   16.6135 C.3       9 GLC5        0.0000 
     36 CA         48.9995   -3.2390   22.1605 C.3       9 GLC5        0.0000 
     37 CA         51.9625   -0.6430   18.0190 C.3       9 GLC5        0.0000 
@<TRIPOS>BOND
@<TRIPOS>SUBSTRUCTURE
     1 SEL1        1 GROUP        1 Z    SEL  0     ROOT SEL Z 0
     2 LYL3        5 GROUP        1 Z    LYL  0     **** LYL Z 2
     3 GLL5        7 GROUP        1 Z    GLL  0     **** GLL Z 4
     4 SEP1       12 GROUP        1 Z    SEP  0     **** SEP Z 7
     5 LYP3       17 GROUP        1 Z    LYP  0     **** LYP Z 9
     6 GLP5       18 GROUP        1 Z    GLP  0     **** GLP Z 11
     7 SEC1       24 GROUP        1 Z    SEC  0     **** SEC Z 14
     8 LYC3       29 GROUP        1 Z    LYC  0     **** LYC Z 16
     9 GLC5       31 GROUP        1 Z    GLC  0     **** GLC Z 18
@<TRIPOS>SET

