2y67_N21_1_ligand
  -OEChem-08111718373D

 54 56  0     1  0  0  0  0  0999 V2000
   47.0297   -0.0624   20.2621 H   0  0  0  0  0  0  0  0  0  0  0  0
   49.9120   -2.5825   18.6726 H   0  0  0  0  0  0  0  0  0  0  0  0
   46.2114    1.9758   15.5800 H   0  0  0  0  0  0  0  0  0  0  0  0
   43.4304   -0.5551   17.3531 H   0  0  0  0  0  0  0  0  0  0  0  0
   46.1004    0.2316   18.0825 H   0  0  0  0  0  0  0  0  0  0  0  0
   48.9720   -2.2977   16.4885 H   0  0  0  0  0  0  0  0  0  0  0  0
   45.2489    3.8438   16.7348 H   0  0  0  0  0  0  0  0  0  0  0  0
   42.4754    1.3047   18.5111 H   0  0  0  0  0  0  0  0  0  0  0  0
   48.6705   -2.2726   21.4490 H   0  0  0  0  0  0  0  0  0  0  0  0
   48.7893   -0.6474   21.5550 H   0  0  0  0  0  0  0  0  0  0  0  0
   45.3183   -0.5590   14.6693 H   0  0  0  0  0  0  0  0  0  0  0  0
   45.0239   -1.4841   15.9824 H   0  0  0  0  0  0  0  0  0  0  0  0
   39.4217    2.2443   21.3641 H   0  0  0  0  0  0  0  0  0  0  0  0
   38.2416    3.1324   20.6675 H   0  0  0  0  0  0  0  0  0  0  0  0
   39.1612    2.8875   18.5870 H   0  0  0  0  0  0  0  0  0  0  0  0
   40.1609    1.7008   19.0956 H   0  0  0  0  0  0  0  0  0  0  0  0
   41.3676    3.2671   20.4224 H   0  0  0  0  0  0  0  0  0  0  0  0
   53.0560   -1.9920   23.4783 H   0  0  0  0  0  0  0  0  0  0  0  0
   41.1824    4.4804   17.9380 H   0  0  0  0  0  0  0  0  0  0  0  0
   47.4430   -0.5220   19.4760 C   0  0  0  0  0  0  0  0  0  0  0  0
   49.1170   -1.9890   18.5470 C   0  0  0  0  0  0  0  0  0  0  0  0
   45.4330    1.8360   16.1920 C   0  0  0  0  0  0  0  0  0  0  0  0
   43.8130    0.3600   17.2260 C   0  0  0  0  0  0  0  0  0  0  0  0
   46.8980   -0.3590   18.2050 C   0  0  0  0  0  0  0  0  0  0  0  0
   48.5670   -1.8280   17.2730 C   0  0  0  0  0  0  0  0  0  0  0  0
   44.8720    2.9270   16.8670 C   0  0  0  0  0  0  0  0  0  0  0  0
   43.2550    1.4460   17.9010 C   0  0  0  0  0  0  0  0  0  0  0  0
   48.5650   -1.3270   19.6480 C   0  0  0  0  0  0  0  0  0  0  0  0
   44.9070    0.5460   16.3710 C   0  0  0  0  0  0  0  0  0  0  0  0
   47.4500   -1.0090   17.0990 C   0  0  0  0  0  0  0  0  0  0  0  0
   43.7810    2.7350   17.7290 C   0  0  0  0  0  0  0  0  0  0  0  0
   50.5960   -1.5850   21.3270 C   0  0  0  0  0  0  0  0  0  0  0  0
   51.1750   -1.7710   22.5640 C   0  0  0  0  0  0  0  0  0  0  0  0
   52.9710   -1.7360   21.3970 C   0  0  0  0  0  0  0  0  0  0  0  0
   37.9550    1.1000   20.4760 C   0  0  0  0  0  0  0  0  0  0  0  0
   40.1490    4.9190   20.0860 C   0  0  0  0  0  0  0  0  0  0  0  0
   49.0990   -1.4580   21.0580 C   0  0  2  0  0  0  0  0  0  0  0  0
   45.4890   -0.6640   15.6490 C   0  0  2  0  0  0  0  0  0  0  0  0
   38.8340    2.3340   20.5600 C   0  0  2  0  0  0  0  0  0  0  0  0
   39.7190    2.5610   19.3500 C   0  0  2  0  0  0  0  0  0  0  0  0
   40.7880    3.6030   19.6800 C   0  0  1  0  0  0  0  0  0  0  0  0
   52.5130   -1.8600   22.6490 N   0  0  0  0  0  0  0  0  0  0  0  0
   41.5760    3.7210   18.4560 N   0  0  2  0  0  0  0  0  0  0  0  0
   38.0470    0.2840   19.5260 O   0  5  0  0  0  0  0  0  0  0  0  0
   39.7600    5.6830   19.1710 O   0  5  0  0  0  0  0  0  0  0  0  0
   54.4190   -1.8160   21.1720 O   0  0  0  0  0  0  0  0  0  0  0  0
   37.1420    0.9450   21.4090 O   0  0  0  0  0  0  0  0  0  0  0  0
   40.0290    5.2120   21.3060 O   0  0  0  0  0  0  0  0  0  0  0  0
   43.3870    5.1810   17.8080 O   0  0  0  0  0  0  0  0  0  0  0  0
   43.5250    4.0320   19.8680 O   0  0  0  0  0  0  0  0  0  0  0  0
   50.3140   -1.8630   23.7650 O   0  5  0  0  0  0  0  0  0  0  0  0
   46.9000   -0.8320   15.8470 O   0  0  0  0  0  0  0  0  0  0  0  0
   51.8440   -1.5040   20.0840 S   0  0  0  0  0  0  0  0  0  0  0  0
   43.0880    3.9660   18.5040 S   0  0  2  0  0  0  0  0  0  0  0  0
  1 20  1  0  0  0  0
  2 21  1  0  0  0  0
  3 22  1  0  0  0  0
  4 23  1  0  0  0  0
  5 24  1  0  0  0  0
  6 25  1  0  0  0  0
  7 26  1  0  0  0  0
  8 27  1  0  0  0  0
  9 37  1  0  0  0  0
 10 37  1  0  0  0  0
 11 38  1  0  0  0  0
 12 38  1  0  0  0  0
 13 39  1  0  0  0  0
 14 39  1  0  0  0  0
 15 40  1  0  0  0  0
 16 40  1  0  0  0  0
 17 41  1  0  0  0  0
 18 42  1  0  0  0  0
 19 43  1  0  0  0  0
 20 24  1  0  0  0  0
 20 28  2  0  0  0  0
 21 25  2  0  0  0  0
 21 28  1  0  0  0  0
 22 26  2  0  0  0  0
 22 29  1  0  0  0  0
 23 27  1  0  0  0  0
 23 29  2  0  0  0  0
 24 30  2  0  0  0  0
 25 30  1  0  0  0  0
 26 31  1  0  0  0  0
 27 31  2  0  0  0  0
 28 37  1  0  0  0  0
 29 38  1  0  0  0  0
 30 52  1  0  0  0  0
 31 54  1  0  0  0  0
 32 33  2  0  0  0  0
 32 37  1  0  0  0  0
 32 53  1  0  0  0  0
 33 42  1  0  0  0  0
 33 51  1  0  0  0  0
 34 42  1  0  0  0  0
 34 46  2  0  0  0  0
 34 53  1  0  0  0  0
 35 39  1  0  0  0  0
 35 44  1  0  0  0  0
 35 47  2  0  0  0  0
 36 41  1  0  0  0  0
 36 45  1  0  0  0  0
 36 48  2  0  0  0  0
 38 52  1  0  0  0  0
 39 40  1  0  0  0  0
 40 41  1  0  0  0  0
 41 43  1  0  0  0  0
 43 54  1  0  0  0  0
 49 54  2  0  0  0  0
 50 54  2  0  0  0  0
M  CHG  3  44  -1  45  -1  51  -1
M  END
> <scpdb_id>
2y67_1

$$$$
