@<TRIPOS>MOLECULE
2y67_N21_1_ligand
   55    57     1     0     0
SMALL
NO_CHARGES


@<TRIPOS>ATOM
     1 OE1         37.1420     0.9450    21.4090 O.co2        1 N21500   0.0000
     2 CD          37.9550     1.1000    20.4760 C.2          1 N21500   0.0000
     3 OE2         38.0470     0.2840    19.5260 O.co2        1 N21500  -1.0000
     4 CG          38.8340     2.3340    20.5600 C.3          1 N21500   0.0000
     5 CB          39.7190     2.5610    19.3500 C.3          1 N21500   0.0000
     6 C           40.1490     4.9190    20.0860 C.2          1 N21500   0.0000
     7 OXT         40.0290     5.2120    21.3060 O.co2        1 N21500   0.0000
     8 O           39.7600     5.6830    19.1710 O.co2        1 N21500  -1.0000
     9 N           41.5760     3.7210    18.4560 N.3          1 N21500   0.0000
    10 OBC         43.3870     5.1810    17.8080 O.2          1 N21500   0.0000
    11 CAT         44.8720     2.9270    16.8670 C.ar         1 N21500   0.0000
    12 CAQ         45.4330     1.8360    16.1920 C.ar         1 N21500   0.0000
    13 CAS         43.7810     2.7350    17.7290 C.ar         1 N21500   0.0000
    14 CAR         43.2550     1.4460    17.9010 C.ar         1 N21500   0.0000
    15 CAP         43.8130     0.3600    17.2260 C.ar         1 N21500   0.0000
    16 CAO         44.9070     0.5460    16.3710 C.ar         1 N21500   0.0000
    17 CAN         45.4890    -0.6640    15.6490 C.3          1 N21500   0.0000
    18 CAA         47.4500    -1.0090    17.0990 C.ar         1 N21500   0.0000
    19 CAB         46.8980    -0.3590    18.2050 C.ar         1 N21500   0.0000
    20 CAG         47.4430    -0.5220    19.4760 C.ar         1 N21500   0.0000
    21 CAC         48.5670    -1.8280    17.2730 C.ar         1 N21500   0.0000
    22 CAE         49.1170    -1.9890    18.5470 C.ar         1 N21500   0.0000
    23 CAF         48.5650    -1.3270    19.6480 C.ar         1 N21500   0.0000
    24 CAH         49.0990    -1.4580    21.0580 C.3          1 N21500   0.0000
    25 SBG         51.8440    -1.5040    20.0840 S.3          1 N21500   0.0000
    26 CAL         52.9710    -1.7360    21.3970 C.2          1 N21500   0.0000
    27 NAX         52.5130    -1.8600    22.6490 N.pl3        1 N21500   0.0000
    28 CA          40.7880     3.6030    19.6800 C.3          1 N21500   0.0000
    29 CAK         51.1750    -1.7710    22.5640 C.2          1 N21500   0.0000
    30 CAI         50.5960    -1.5850    21.3270 C.2          1 N21500   0.0000
    31 OBE         50.3140    -1.8630    23.7650 O.3          1 N21500   0.0000
    32 SAU         43.0880     3.9660    18.5040 S.o2         1 N21500   0.0000
    33 OBD         43.5250     4.0320    19.8680 O.2          1 N21500   0.0000
    34 OBH         54.4190    -1.8160    21.1720 O.2          1 N21500   0.0000
    35 OAY         46.9000    -0.8320    15.8470 O.3          1 N21500   0.0000
    36 HG1         39.4217     2.2443    21.3641 H            1 N21500   0.0000
    37 HG2         38.2416     3.1324    20.6675 H            1 N21500   0.0000
    38 HB1         39.1612     2.8875    18.5870 H            1 N21500   0.0000
    39 HB2         40.1609     1.7008    19.0956 H            1 N21500   0.0000
    40 H5          41.1824     4.4804    17.9380 H            1 N21500   0.0000
    41 HAT         45.2489     3.8438    16.7348 H            1 N21500   0.0000
    42 HAQ         46.2114     1.9758    15.5800 H            1 N21500   0.0000
    43 HAR         42.4754     1.3047    18.5111 H            1 N21500   0.0000
    44 HAP         43.4304    -0.5551    17.3531 H            1 N21500   0.0000
    45 HAN1        45.3183    -0.5590    14.6693 H            1 N21500   0.0000
    46 HAN2        45.0239    -1.4841    15.9824 H            1 N21500   0.0000
    47 HAB         46.1004     0.2316    18.0825 H            1 N21500   0.0000
    48 HAG         47.0297    -0.0624    20.2621 H            1 N21500   0.0000
    49 HAC         48.9720    -2.2977    16.4885 H            1 N21500   0.0000
    50 HAE         49.9120    -2.5825    18.6726 H            1 N21500   0.0000
    51 HAH1        48.6705    -2.2726    21.4490 H            1 N21500   0.0000
    52 HAH2        48.7893    -0.6474    21.5550 H            1 N21500   0.0000
    53 HAX         53.0560    -1.9920    23.4783 H            1 N21500   0.0000
    54 HA          41.3676     3.2671    20.4224 H            1 N21500   0.0000
    55 HBE         49.3205    -1.7937    23.6745 H            1 N21500   0.0000
@<TRIPOS>BOND
     1    1    2      ar
     2    2    3      ar
     3    2    4       1
     4    4    5       1
     5    5   28       1
     6    6    7      ar
     7    6    8      ar
     8    6   28       1
     9    9   28       1
    10    9   32       1
    11   10   32       2
    12   11   12      ar
    13   11   13      ar
    14   12   16      ar
    15   13   14      ar
    16   13   32       1
    17   14   15      ar
    18   15   16      ar
    19   16   17       1
    20   17   35       1
    21   18   19      ar
    22   18   21      ar
    23   18   35       1
    24   19   20      ar
    25   20   23      ar
    26   21   22      ar
    27   22   23      ar
    28   23   24       1
    29   24   30       1
    30   25   26       1
    31   25   30       1
    32   26   27       1
    33   26   34       2
    34   27   29       1
    35   29   30       2
    36   29   31       1
    37   32   33       2
    38   31   55       1
    39    4   36       1
    40    4   37       1
    41    5   38       1
    42    5   39       1
    43   28   54       1
    44    9   40       1
    45   11   41       1
    46   12   42       1
    47   14   43       1
    48   15   44       1
    49   17   45       1
    50   17   46       1
    51   19   47       1
    52   20   48       1
    53   21   49       1
    54   22   50       1
    55   24   51       1
    56   24   52       1
    57   27   53       1
@<TRIPOS>SUBSTRUCTURE
     1 N21500      1 GROUP             4 A     N21     0 **** N21 A 500
