#    Name: 17813
#    Modification time : Tue Aug  8 19:37:23 2017

@<TRIPOS>MOLECULE
17813
   25     0     9     0     0
SMALL
NO_CHARGES


@<TRIPOS>ATOM
      1 N          20.1340    9.9390   19.7070 N.am      1 SEL1        0.0000 
      2 N          22.6610    8.8540   15.8130 N.am      1 SEL1        0.0000 
      3 O          20.1550    9.1040   22.4290 O.2       2 ALL2        0.0000 
      4 CA         20.1440    8.6660   23.8230 C.3       3 GLL5        0.0000 
      5 CA         21.3140    9.2600   24.6070 C.3       3 GLL5        0.0000 
      6 CA         23.9970    4.9270   19.2490 C.3       3 GLL5        0.0000 
      7 CA         25.6500    3.2670   20.7230 C.3       3 GLL5        0.0000 
      8 N          18.1630   12.4260   20.6140 N.am      4 SEP1        0.0000 
      9 N          23.8860    7.4400   13.7560 N.am      4 SEP1        0.0000 
     10 O          17.7950   10.5650   22.6270 O.2       5 ALP2        0.0000 
     11 CA         16.7400    6.7100   22.9300 C.3       6 GLP5        0.0000 
     12 CA         24.5880    9.2260   26.8260 C.3       6 GLP5        0.0000 
     13 CA         23.3700   11.0730   21.8670 C.3       6 GLP5        0.0000 
     14 CA         20.7730   12.9650   24.4310 C.3       6 GLP5        0.0000 
     15 CA         21.1510    5.2960   16.8490 C.3       6 GLP5        0.0000 
     16 CA         27.7110    6.1230   20.2260 C.3       6 GLP5        0.0000 
     17 N          19.1485   11.1825   20.1605 N.am      7 SEC1        0.0000 
     18 N          23.2735    8.1470   14.7845 N.am      7 SEC1        0.0000 
     19 O          18.9750    9.8345   22.5280 O.2       8 ALC2        0.0000 
     20 CA         18.4420    7.6880   23.3765 C.3       9 GLC5        0.0000 
     21 CA         22.9510    9.2430   25.7165 C.3       9 GLC5        0.0000 
     22 CA         22.0495   10.0180   23.0410 C.3       9 GLC5        0.0000 
     23 CA         20.7510   10.9640   24.3230 C.3       9 GLC5        0.0000 
     24 CA         22.7795    4.8838   17.8840 C.3       9 GLC5        0.0000 
     25 CA         26.2661    5.1067   20.0183 C.3       9 GLC5        0.0000 
@<TRIPOS>BOND
@<TRIPOS>SUBSTRUCTURE
     1 SEL1        1 GROUP        1 Z    SEL  0     ROOT SEL Z 0
     2 ALL2        3 GROUP        1 Z    ALL  0     **** ALL Z 1
     3 GLL5        4 GROUP        1 Z    GLL  0     **** GLL Z 4
     4 SEP1        8 GROUP        1 Z    SEP  0     **** SEP Z 7
     5 ALP2       10 GROUP        1 Z    ALP  0     **** ALP Z 8
     6 GLP5       11 GROUP        1 Z    GLP  0     **** GLP Z 11
     7 SEC1       17 GROUP        1 Z    SEC  0     **** SEC Z 14
     8 ALC2       19 GROUP        1 Z    ALC  0     **** ALC Z 15
     9 GLC5       20 GROUP        1 Z    GLC  0     **** GLC Z 18
@<TRIPOS>SET

