@<TRIPOS>MOLECULE
2pvm_P29_1_ligand
   41    44     1     0     0
SMALL
NO_CHARGES


@<TRIPOS>ATOM
     1 N01         20.1340     9.9390    19.7070 N.2          1 P29501   0.0000
     2 C02         20.4390    10.0350    18.3860 C.2          1 P29501   0.0000
     3 C03         21.4070     9.0650    18.0660 C.2          1 P29501   0.0000
     4 C04         21.6650     8.3550    19.3000 C.2          1 P29501   0.0000
     5 N05         20.8760     8.9320    20.2520 N.pl3        1 P29501   0.0000
     6 N06         22.4740     7.3330    19.6320 N.2          1 P29501   0.0000
     7 C07         22.4660     6.9290    20.9010 C.2          1 P29501   0.0000
     8 N08         21.7110     7.4830    21.8430 N.2          1 P29501   0.0000
     9 C09         20.9190     8.4910    21.4950 C.2          1 P29501   0.0000
    10 N10         20.1550     9.1040    22.4290 N.pl3        1 P29501   0.0000
    11 C11         20.1440     8.6660    23.8230 C.3          1 P29501   0.0000
    12 C12         21.3140     9.2600    24.6070 C.3          1 P29501   0.0000
    13 C13         21.2570     8.7150    26.0160 C.2          1 P29501   0.0000
    14 N14         21.2900     7.3950    26.3010 N.2          1 P29501   0.0000
    15 C15         21.2220     7.2880    27.6570 C.2          1 P29501   0.0000
    16 N16         21.1460     8.5320    28.2120 N.pl3        1 P29501   0.0000
    17 C17         21.1660     9.4540    27.2120 C.2          1 P29501   0.0000
    18 N18         23.2210     5.8920    21.3510 N.pl3        1 P29501   0.0000
    19 C19         23.9910     5.0260    20.6430 C.ar         1 P29501   0.0000
    20 C20         23.9970     4.9270    19.2490 C.ar         1 P29501   0.0000
    21 C21         24.8190     4.0160    18.5890 C.ar         1 P29501   0.0000
    22 C22         25.6530     3.1850    19.3320 C.ar         1 P29501   0.0000
    23 C23         25.6500     3.2670    20.7230 C.ar         1 P29501   0.0000
    24 C24         24.8230     4.1810    21.3750 C.ar         1 P29501   0.0000
    25 C25         22.0690     8.8930    16.8090 C.1          1 P29501   0.0000
    26 N26         22.6610     8.8540    15.8130 N.1          1 P29501   0.0000
    27 H1          20.0396    10.6899    17.7444 H            1 P29501   0.0000
    28 H2          19.5825     9.8777    22.1577 H            1 P29501   0.0000
    29 H3          20.2077     7.6684    23.8505 H            1 P29501   0.0000
    30 H4          19.2870     8.9571    24.2482 H            1 P29501   0.0000
    31 H5          21.2388    10.2570    24.6255 H            1 P29501   0.0000
    32 H6          22.1782     8.9988    24.1768 H            1 P29501   0.0000
    33 H7          21.2270     6.4285    28.1681 H            1 P29501   0.0000
    34 H8          21.1247    10.4487    27.3062 H            1 P29501   0.0000
    35 H9          23.2075     5.7468    22.3403 H            1 P29501   0.0000
    36 H10         23.3984     5.5229    18.7137 H            1 P29501   0.0000
    37 H11         24.8100     3.9596    17.5906 H            1 P29501   0.0000
    38 H12         26.2520     2.5316    18.8691 H            1 P29501   0.0000
    39 H13         26.2449     2.6664    21.2572 H            1 P29501   0.0000
    40 H14         24.8270     4.2304    22.3738 H            1 P29501   0.0000
    41 H15         21.0857     8.7324    29.1899 H            1 P29501   0.0000
@<TRIPOS>BOND
     1    1    2       2
     2    1    5       1
     3    2    3       1
     4    3    4       2
     5    3   25       1
     6    4    5       1
     7    4    6       1
     8    5    9       1
     9    6    7       2
    10    7    8       1
    11    7   18       1
    12    8    9       2
    13    9   10       1
    14   10   11       1
    15   11   12       1
    16   12   13       1
    17   13   14       1
    18   13   17       2
    19   14   15       2
    20   15   16       1
    21   16   17       1
    22   18   19       1
    23   19   20      ar
    24   19   24      ar
    25   20   21      ar
    26   21   22      ar
    27   22   23      ar
    28   23   24      ar
    29   25   26       3
    30    2   27       1
    31   10   28       1
    32   11   29       1
    33   11   30       1
    34   12   31       1
    35   12   32       1
    36   24   40       1
    37   15   33       1
    38   17   34       1
    39   18   35       1
    40   20   36       1
    41   21   37       1
    42   22   38       1
    43   23   39       1
    44   16   41       1
@<TRIPOS>SUBSTRUCTURE
     1 P29501      1 GROUP             4 A     P29     0 **** P29 A 501
