2pvm_P29_1_ligand
  -OEChem-08111718373D

 41 44  0     1  0  0  0  0  0999 V2000
   26.2520    2.5316   18.8691 H   0  0  0  0  0  0  0  0  0  0  0  0
   24.8100    3.9596   17.5906 H   0  0  0  0  0  0  0  0  0  0  0  0
   26.2449    2.6664   21.2572 H   0  0  0  0  0  0  0  0  0  0  0  0
   23.3984    5.5229   18.7137 H   0  0  0  0  0  0  0  0  0  0  0  0
   24.8270    4.2304   22.3738 H   0  0  0  0  0  0  0  0  0  0  0  0
   20.0396   10.6899   17.7444 H   0  0  0  0  0  0  0  0  0  0  0  0
   21.1247   10.4487   27.3062 H   0  0  0  0  0  0  0  0  0  0  0  0
   21.2270    6.4285   28.1681 H   0  0  0  0  0  0  0  0  0  0  0  0
   21.2388   10.2570   24.6255 H   0  0  0  0  0  0  0  0  0  0  0  0
   22.1782    8.9988   24.1768 H   0  0  0  0  0  0  0  0  0  0  0  0
   20.2077    7.6684   23.8505 H   0  0  0  0  0  0  0  0  0  0  0  0
   19.2870    8.9571   24.2482 H   0  0  0  0  0  0  0  0  0  0  0  0
   21.0857    8.7324   29.1899 H   0  0  0  0  0  0  0  0  0  0  0  0
   23.2075    5.7468   22.3403 H   0  0  0  0  0  0  0  0  0  0  0  0
   19.5825    9.8777   22.1577 H   0  0  0  0  0  0  0  0  0  0  0  0
   22.0690    8.8930   16.8090 C   0  0  0  0  0  0  0  0  0  0  0  0
   25.6530    3.1850   19.3320 C   0  0  0  0  0  0  0  0  0  0  0  0
   24.8190    4.0160   18.5890 C   0  0  0  0  0  0  0  0  0  0  0  0
   25.6500    3.2670   20.7230 C   0  0  0  0  0  0  0  0  0  0  0  0
   23.9970    4.9270   19.2490 C   0  0  0  0  0  0  0  0  0  0  0  0
   24.8230    4.1810   21.3750 C   0  0  0  0  0  0  0  0  0  0  0  0
   20.4390   10.0350   18.3860 C   0  0  0  0  0  0  0  0  0  0  0  0
   21.1660    9.4540   27.2120 C   0  0  0  0  0  0  0  0  0  0  0  0
   21.2220    7.2880   27.6570 C   0  0  0  0  0  0  0  0  0  0  0  0
   21.4070    9.0650   18.0660 C   0  0  0  0  0  0  0  0  0  0  0  0
   23.9910    5.0260   20.6430 C   0  0  0  0  0  0  0  0  0  0  0  0
   21.2570    8.7150   26.0160 C   0  0  0  0  0  0  0  0  0  0  0  0
   21.6650    8.3550   19.3000 C   0  0  0  0  0  0  0  0  0  0  0  0
   22.4660    6.9290   20.9010 C   0  0  0  0  0  0  0  0  0  0  0  0
   20.9190    8.4910   21.4950 C   0  0  0  0  0  0  0  0  0  0  0  0
   21.3140    9.2600   24.6070 C   0  0  1  0  0  0  0  0  0  0  0  0
   20.1440    8.6660   23.8230 C   0  0  1  0  0  0  0  0  0  0  0  0
   22.6610    8.8540   15.8130 N   0  0  0  0  0  0  0  0  0  0  0  0
   20.1340    9.9390   19.7070 N   0  0  0  0  0  0  0  0  0  0  0  0
   21.2900    7.3950   26.3010 N   0  0  0  0  0  0  0  0  0  0  0  0
   22.4740    7.3330   19.6320 N   0  0  0  0  0  0  0  0  0  0  0  0
   21.7110    7.4830   21.8430 N   0  0  0  0  0  0  0  0  0  0  0  0
   21.1460    8.5320   28.2120 N   0  0  0  0  0  0  0  0  0  0  0  0
   20.8760    8.9320   20.2520 N   0  0  0  0  0  0  0  0  0  0  0  0
   23.2210    5.8920   21.3510 N   0  0  0  0  0  0  0  0  0  0  0  0
   20.1550    9.1040   22.4290 N   0  0  0  0  0  0  0  0  0  0  0  0
  1 17  1  0  0  0  0
  2 18  1  0  0  0  0
  3 19  1  0  0  0  0
  4 20  1  0  0  0  0
  5 21  1  0  0  0  0
  6 22  1  0  0  0  0
  7 23  1  0  0  0  0
  8 24  1  0  0  0  0
  9 31  1  0  0  0  0
 10 31  1  0  0  0  0
 11 32  1  0  0  0  0
 12 32  1  0  0  0  0
 13 38  1  0  0  0  0
 14 40  1  0  0  0  0
 15 41  1  0  0  0  0
 16 25  1  0  0  0  0
 16 33  3  0  0  0  0
 17 18  2  0  0  0  0
 17 19  1  0  0  0  0
 18 20  1  0  0  0  0
 19 21  2  0  0  0  0
 20 26  2  0  0  0  0
 21 26  1  0  0  0  0
 22 25  1  0  0  0  0
 22 34  2  0  0  0  0
 23 27  2  0  0  0  0
 23 38  1  0  0  0  0
 24 35  2  0  0  0  0
 24 38  1  0  0  0  0
 25 28  2  0  0  0  0
 26 40  1  0  0  0  0
 27 31  1  0  0  0  0
 27 35  1  0  0  0  0
 28 36  1  0  0  0  0
 28 39  1  0  0  0  0
 29 36  2  0  0  0  0
 29 37  1  0  0  0  0
 29 40  1  0  0  0  0
 30 37  2  0  0  0  0
 30 39  1  0  0  0  0
 30 41  1  0  0  0  0
 31 32  1  0  0  0  0
 32 41  1  0  0  0  0
 34 39  1  0  0  0  0
M  END
> <scpdb_id>
2pvm_1

$$$$
