#    Name: 49277
#    Modification time : Tue Aug  8 22:12:21 2017

@<TRIPOS>MOLECULE
49277
   34     0     9     0     0
SMALL
NO_CHARGES


@<TRIPOS>ATOM
      1 N         -18.0050   67.8540    3.0060 N.am      1 SEL1        0.0000 
      2 N         -16.8030   66.0990    3.4550 N.am      1 SEL1        0.0000 
      3 N         -22.2150   60.0590   13.1700 N.am      1 SEL1        0.0000 
      4 O         -17.7610   61.3480    6.4780 O.2       2 ALL2        0.0000 
      5 O         -17.7680   59.4330    8.1950 O.2       2 ALL2        0.0000 
      6 O         -22.7820   57.7770   13.1440 O.2       2 ALL2        0.0000 
      7 CA        -19.2130   64.5660    3.8560 C.3       3 GLL5        0.0000 
      8 CA        -20.3710   62.1340    3.6740 C.3       3 GLL5        0.0000 
      9 CA        -18.9370   60.5810    6.3620 C.3       3 GLL5        0.0000 
     10 CA        -19.9340   60.3350    8.4940 C.3       3 GLL5        0.0000 
     11 CA        -20.1090   61.5430    6.5190 C.3       3 GLL5        0.0000 
     12 N         -18.7300   67.7790   -0.2900 N.am      4 SEP1        0.0000 
     13 N         -14.8970   66.4990    5.9230 N.am      4 SEP1        0.0000 
     14 N         -23.4450   60.8900   15.7200 N.am      4 SEP1        0.0000 
     15 O         -17.9960   62.8320    8.7710 O.2       5 ALP2        0.0000 
     16 O         -16.8680   61.5420   10.1400 O.2       5 ALP2        0.0000 
     17 O         -22.3870   56.3570   16.0340 O.2       5 ALP2        0.0000 
     18 O         -23.8290   58.0550   15.9580 O.2       5 ALP2        0.0000 
     19 CA        -17.6950   61.5410    1.2500 C.3       6 GLP5        0.0000 
     20 CA        -16.6450   60.1170    2.8430 C.3       6 GLP5        0.0000 
     21 CA        -22.6220   63.5940    8.3210 C.3       6 GLP5        0.0000 
     22 N         -18.3675   67.8165    1.3580 N.am      7 SEC1        0.0000 
     23 N         -15.8500   66.2990    4.6890 N.am      7 SEC1        0.0000 
     24 N         -22.8300   60.4745   14.4450 N.am      7 SEC1        0.0000 
     25 O         -17.8785   62.0900    7.6245 O.2       8 ALC2        0.0000 
     26 O         -17.3180   60.4875    9.1675 O.2       8 ALC2        0.0000 
     27 O         -17.8820   61.1325    8.4830 O.2       8 ALC2        0.0000 
     28 O         -22.5845   57.0670   14.5890 O.2       8 ALC2        0.0000 
     29 O         -23.3055   57.9160   14.5510 O.2       8 ALC2        0.0000 
     30 CA        -18.4540   63.0535    2.5530 C.3       9 GLC5        0.0000 
     31 CA        -19.0330   61.8375    2.4620 C.3       9 GLC5        0.0000 
     32 CA        -17.7910   60.3490    4.6025 C.3       9 GLC5        0.0000 
     33 CA        -21.2780   61.9645    8.4075 C.3       9 GLC5        0.0000 
     34 CA        -21.6028   62.6115    7.1190 C.3       9 GLC5        0.0000 
@<TRIPOS>BOND
@<TRIPOS>SUBSTRUCTURE
     1 SEL1        1 GROUP        1 Z    SEL  0     ROOT SEL Z 0
     2 ALL2        4 GROUP        1 Z    ALL  0     **** ALL Z 1
     3 GLL5        7 GROUP        1 Z    GLL  0     **** GLL Z 4
     4 SEP1       12 GROUP        1 Z    SEP  0     **** SEP Z 7
     5 ALP2       15 GROUP        1 Z    ALP  0     **** ALP Z 8
     6 GLP5       19 GROUP        1 Z    GLP  0     **** GLP Z 11
     7 SEC1       22 GROUP        1 Z    SEC  0     **** SEC Z 14
     8 ALC2       25 GROUP        1 Z    ALC  0     **** ALC Z 15
     9 GLC5       30 GROUP        1 Z    GLC  0     **** GLC Z 18
@<TRIPOS>SET

