4u7t_SAH_2_ligand
  -OEChem-08111718373D

 46 48  0     1  0  0  0  0  0999 V2000
  -21.6443   62.0476   13.0156 H   0  0  0  0  0  0  0  0  0  0  0  0
  -20.6497   57.5254    8.5433 H   0  0  0  0  0  0  0  0  0  0  0  0
  -18.9745   60.0950    5.4889 H   0  0  0  0  0  0  0  0  0  0  0  0
  -19.3920   58.7433    7.2589 H   0  0  0  0  0  0  0  0  0  0  0  0
  -19.7464   62.4422    6.7639 H   0  0  0  0  0  0  0  0  0  0  0  0
  -19.4024   61.0067    9.0099 H   0  0  0  0  0  0  0  0  0  0  0  0
  -21.5533   60.8526    5.2105 H   0  0  0  0  0  0  0  0  0  0  0  0
  -21.7015   62.4421    5.5544 H   0  0  0  0  0  0  0  0  0  0  0  0
  -18.7171   64.1304    4.6072 H   0  0  0  0  0  0  0  0  0  0  0  0
  -18.7471   64.3726    2.9926 H   0  0  0  0  0  0  0  0  0  0  0  0
  -21.0745   64.2554    2.9777 H   0  0  0  0  0  0  0  0  0  0  0  0
  -21.1094   64.1501    4.6069 H   0  0  0  0  0  0  0  0  0  0  0  0
  -19.1155   66.2363    5.0691 H   0  0  0  0  0  0  0  0  0  0  0  0
  -23.1902   57.8726   14.0519 H   0  0  0  0  0  0  0  0  0  0  0  0
  -22.7879   56.8891   12.6841 H   0  0  0  0  0  0  0  0  0  0  0  0
  -20.3701   66.6408    2.5821 H   0  0  0  0  0  0  0  0  0  0  0  0
  -20.1919   67.7699    3.7483 H   0  0  0  0  0  0  0  0  0  0  0  0
  -17.7388   61.7906    7.3744 H   0  0  0  0  0  0  0  0  0  0  0  0
  -17.6717   60.1090    8.9256 H   0  0  0  0  0  0  0  0  0  0  0  0
  -21.6480   61.1610   12.5530 C   0  0  0  0  0  0  0  0  0  0  0  0
  -20.8840   58.0910    9.3340 C   0  0  0  0  0  0  0  0  0  0  0  0
  -21.6600   58.7100   11.2850 C   0  0  0  0  0  0  0  0  0  0  0  0
  -21.0910   59.8240   10.6850 C   0  0  0  0  0  0  0  0  0  0  0  0
  -22.2300   58.8330   12.5470 C   0  0  0  0  0  0  0  0  0  0  0  0
  -17.9030   66.7050    3.4750 C   0  0  0  0  0  0  0  0  0  0  0  0
  -18.9370   60.5810    6.3620 C   0  0  1  0  0  0  0  0  0  0  0  0
  -19.0040   59.6210    7.5400 C   0  0  2  0  0  0  0  0  0  0  0  0
  -20.1090   61.5430    6.5190 C   0  0  1  0  0  0  0  0  0  0  0  0
  -19.9340   60.3350    8.4940 C   0  0  2  0  0  0  0  0  0  0  0  0
  -21.0580   61.7150    5.3150 C   0  0  1  0  0  0  0  0  0  0  0  0
  -19.2130   64.5660    3.8560 C   0  0  1  0  0  0  0  0  0  0  0  0
  -20.5870   63.9230    3.7850 C   0  0  2  0  0  0  0  0  0  0  0  0
  -19.1500   66.0800    4.0820 C   0  0  2  0  0  0  0  0  0  0  0  0
  -21.0900   61.0340   11.3030 N   0  0  0  0  0  0  0  0  0  0  0  0
  -22.2150   60.0590   13.1700 N   0  0  0  0  0  0  0  0  0  0  0  0
  -21.5200   57.6560   10.4480 N   0  0  0  0  0  0  0  0  0  0  0  0
  -20.6120   59.4290    9.4610 N   0  0  0  0  0  0  0  0  0  0  0  0
  -22.7820   57.7770   13.1440 N   0  0  0  0  0  0  0  0  0  0  0  0
  -20.2980   66.7920    3.5680 N   0  3  0  0  0  0  0  0  0  0  0  0
  -16.8030   66.0990    3.4550 O   0  5  0  0  0  0  0  0  0  0  0  0
  -18.0050   67.8540    3.0060 O   0  0  0  0  0  0  0  0  0  0  0  0
  -20.8240   61.0320    7.6340 O   0  0  0  0  0  0  0  0  0  0  0  0
  -17.7610   61.3480    6.4780 O   0  0  0  0  0  0  0  0  0  0  0  0
  -17.7680   59.4330    8.1950 O   0  0  0  0  0  0  0  0  0  0  0  0
  -20.3710   62.1340    3.6740 S   0  0  0  0  0  0  0  0  0  0  0  0
  -21.1263   66.4580    4.0179 H   0  0  0  0  0  0  0  0  0  0  0  0
  1 20  1  0  0  0  0
  2 21  1  0  0  0  0
  3 26  1  0  0  0  0
  4 27  1  0  0  0  0
  5 28  1  0  0  0  0
  6 29  1  0  0  0  0
  7 30  1  0  0  0  0
  8 30  1  0  0  0  0
  9 31  1  0  0  0  0
 10 31  1  0  0  0  0
 11 32  1  0  0  0  0
 12 32  1  0  0  0  0
 13 33  1  0  0  0  0
 14 38  1  0  0  0  0
 15 38  1  0  0  0  0
 16 39  1  0  0  0  0
 17 39  1  0  0  0  0
 18 43  1  0  0  0  0
 19 44  1  0  0  0  0
 20 34  1  0  0  0  0
 20 35  2  0  0  0  0
 21 36  2  0  0  0  0
 21 37  1  0  0  0  0
 22 23  1  0  0  0  0
 22 24  2  0  0  0  0
 22 36  1  0  0  0  0
 23 34  2  0  0  0  0
 23 37  1  0  0  0  0
 24 35  1  0  0  0  0
 24 38  1  0  0  0  0
 25 33  1  0  0  0  0
 25 40  1  0  0  0  0
 25 41  2  0  0  0  0
 26 27  1  0  0  0  0
 26 28  1  0  0  0  0
 26 43  1  0  0  0  0
 27 29  1  0  0  0  0
 27 44  1  0  0  0  0
 28 30  1  0  0  0  0
 28 42  1  0  0  0  0
 29 37  1  0  0  0  0
 29 42  1  0  0  0  0
 30 45  1  0  0  0  0
 31 32  1  0  0  0  0
 31 33  1  0  0  0  0
 32 45  1  0  0  0  0
 33 39  1  0  0  0  0
 39 46  1  0  0  0  0
M  CHG  2  39   1  40  -1
M  END
> <scpdb_id>
4u7t_2

$$$$
