@<TRIPOS>MOLECULE
4u7t_SAH_2_ligand
   46    48     1     0     0
SMALL
NO_CHARGES


@<TRIPOS>ATOM
     1 N          -20.2980    66.7920     3.5680 N.4          1 SAH1004   1.0000
     2 CA         -19.1500    66.0800     4.0820 C.3          1 SAH1004   0.0000
     3 CB         -19.2130    64.5660     3.8560 C.3          1 SAH1004   0.0000
     4 CG         -20.5870    63.9230     3.7850 C.3          1 SAH1004   0.0000
     5 SD         -20.3710    62.1340     3.6740 S.3          1 SAH1004   0.0000
     6 C          -17.9030    66.7050     3.4750 C.2          1 SAH1004   0.0000
     7 O          -18.0050    67.8540     3.0060 O.co2        1 SAH1004   0.0000
     8 OXT        -16.8030    66.0990     3.4550 O.co2        1 SAH1004  -1.0000
     9 C5'        -21.0580    61.7150     5.3150 C.3          1 SAH1004   0.0000
    10 C4'        -20.1090    61.5430     6.5190 C.3          1 SAH1004   0.0000
    11 O4'        -20.8240    61.0320     7.6340 O.3          1 SAH1004   0.0000
    12 C3'        -18.9370    60.5810     6.3620 C.3          1 SAH1004   0.0000
    13 O3'        -17.7610    61.3480     6.4780 O.3          1 SAH1004   0.0000
    14 C2'        -19.0040    59.6210     7.5400 C.3          1 SAH1004   0.0000
    15 O2'        -17.7680    59.4330     8.1950 O.3          1 SAH1004   0.0000
    16 C1'        -19.9340    60.3350     8.4940 C.3          1 SAH1004   0.0000
    17 N9         -20.6120    59.4290     9.4610 N.pl3        1 SAH1004   0.0000
    18 C8         -20.8840    58.0910     9.3340 C.2          1 SAH1004   0.0000
    19 N7         -21.5200    57.6560    10.4480 N.2          1 SAH1004   0.0000
    20 C5         -21.6600    58.7100    11.2850 C.ar         1 SAH1004   0.0000
    21 C6         -22.2300    58.8330    12.5470 C.ar         1 SAH1004   0.0000
    22 N6         -22.7820    57.7770    13.1440 N.pl3        1 SAH1004   0.0000
    23 N1         -22.2150    60.0590    13.1700 N.ar         1 SAH1004   0.0000
    24 C2         -21.6480    61.1610    12.5530 C.ar         1 SAH1004   0.0000
    25 N3         -21.0900    61.0340    11.3030 N.ar         1 SAH1004   0.0000
    26 C4         -21.0910    59.8240    10.6850 C.ar         1 SAH1004   0.0000
    27 H1         -20.1920    67.7699     3.7484 H            1 SAH1004   0.0000
    28 H2         -20.3700    66.6408     2.5821 H            1 SAH1004   0.0000
    29 HA         -19.1155    66.2363     5.0691 H            1 SAH1004   0.0000
    30 HB1        -18.7171    64.1304     4.6072 H            1 SAH1004   0.0000
    31 HB2        -18.7471    64.3726     2.9926 H            1 SAH1004   0.0000
    32 HG1        -21.0745    64.2554     2.9777 H            1 SAH1004   0.0000
    33 HG2        -21.1094    64.1501     4.6069 H            1 SAH1004   0.0000
    34 H5'1       -21.5533    60.8526     5.2105 H            1 SAH1004   0.0000
    35 H5'2       -21.7015    62.4421     5.5544 H            1 SAH1004   0.0000
    36 H4'        -19.7464    62.4422     6.7639 H            1 SAH1004   0.0000
    37 H3'        -18.9745    60.0950     5.4889 H            1 SAH1004   0.0000
    38 H12        -17.7388    61.7906     7.3744 H            1 SAH1004   0.0000
    39 H2'        -19.3920    58.7433     7.2589 H            1 SAH1004   0.0000
    40 H14        -17.6717    60.1090     8.9256 H            1 SAH1004   0.0000
    41 H1'        -19.4024    61.0067     9.0099 H            1 SAH1004   0.0000
    42 H16        -20.6497    57.5254     8.5433 H            1 SAH1004   0.0000
    43 H17        -23.1902    57.8726    14.0519 H            1 SAH1004   0.0000
    44 H18        -22.7879    56.8891    12.6841 H            1 SAH1004   0.0000
    45 H19        -21.6443    62.0476    13.0156 H            1 SAH1004   0.0000
    46 H20        -21.1263    66.4580     4.0179 H            1 SAH1004   0.0000
@<TRIPOS>BOND
     1    1    2       1
     2    2    3       1
     3    2    6       1
     4    3    4       1
     5    4    5       1
     6    5    9       1
     7    6    7      ar
     8    6    8      ar
     9    9   10       1
    10   10   11       1
    11   10   12       1
    12   11   16       1
    13   12   13       1
    14   12   14       1
    15   14   15       1
    16   14   16       1
    17   16   17       1
    18   17   18       1
    19   17   26       1
    20   18   19       2
    21   19   20       1
    22   20   21      ar
    23   20   26      ar
    24   21   22       1
    25   21   23      ar
    26   23   24      ar
    27   24   25      ar
    28   25   26      ar
    29    1   27       1
    30    1   28       1
    31    2   29       1
    32    3   30       1
    33    3   31       1
    34    4   32       1
    35    4   33       1
    36    1   46       1
    37    9   34       1
    38    9   35       1
    39   10   36       1
    40   12   37       1
    41   13   38       1
    42   14   39       1
    43   15   40       1
    44   16   41       1
    45   18   42       1
    46   22   43       1
    47   22   44       1
    48   24   45       1
@<TRIPOS>SUBSTRUCTURE
     1 SAH1004     1 GROUP             4 C     SAH     0 **** SAH C1004
