#    Name: 22314
#    Modification time : Tue Aug  8 22:14:48 2017

@<TRIPOS>MOLECULE
22314
   45     0    12     0     0
SMALL
NO_CHARGES


@<TRIPOS>ATOM
      1 N          34.9710    2.1740   38.8300 N.am      1 SEL1        0.0000 
      2 N          36.8860    1.3660   40.2220 N.am      1 SEL1        0.0000 
      3 N          37.1340    3.3850   38.7560 N.am      1 SEL1        0.0000 
      4 O          32.2010    6.0650   34.8170 O.2       2 ALL2        0.0000 
      5 NZ         36.8860    1.3660   40.2220 N.4       3 LYL3        0.0000 
      6 NZ         37.1340    3.3850   38.7560 N.4       3 LYL3        0.0000 
      7 CA         35.8820    2.2390   35.8870 C.3       4 GLL5        0.0000 
      8 CA         33.4280    5.0270   32.5690 C.3       4 GLL5        0.0000 
      9 CA         35.3220    3.1830   31.5840 C.3       4 GLL5        0.0000 
     10 CA         36.1900    1.9700   32.0630 C.3       4 GLL5        0.0000 
     11 CA         35.6800    2.4800   34.5360 C.3       4 GLL5        0.0000 
     12 CA         36.3800    1.7410   33.5760 C.3       4 GLL5        0.0000 
     13 N          33.6120    2.4800   41.1770 N.am      5 SEP1        0.0000 
     14 N          34.9580    0.0970   41.3980 N.am      5 SEP1        0.0000 
     15 N          39.6010    1.1930   40.7460 N.am      5 SEP1        0.0000 
     16 N          36.5230    2.2620   42.6470 N.am      5 SEP1        0.0000 
     17 N          36.0210    6.2540   38.9830 N.am      5 SEP1        0.0000 
     18 N          39.1870    3.9380   37.1330 N.am      5 SEP1        0.0000 
     19 O          31.1050    5.7430   37.3920 O.2       6 ALP2        0.0000 
     20 NZ         39.6010    1.1930   40.7460 N.4       7 LYP3        0.0000 
     21 CA         36.4270    6.0930   36.5610 C.3       8 GLP5        0.0000 
     22 CA         30.4540    3.8050   30.8400 C.3       8 GLP5        0.0000 
     23 CA         37.0640    5.8170   34.1950 C.3       8 GLP5        0.0000 
     24 CA         34.0430    9.2290   33.2170 C.3       8 GLP5        0.0000 
     25 CA         34.5680    6.2970   29.4520 C.3       8 GLP5        0.0000 
     26 CA         33.8260   -0.4870   34.4100 C.3       8 GLP5        0.0000 
     27 N          34.2915    2.3270   40.0035 N.am      9 SEC1        0.0000 
     28 N          35.9220    0.7315   40.8100 N.am      9 SEC1        0.0000 
     29 N          38.2435    1.2795   40.4840 N.am      9 SEC1        0.0000 
     30 N          36.7045    1.8140   41.4345 N.am      9 SEC1        0.0000 
     31 N          36.5775    4.8195   38.8695 N.am      9 SEC1        0.0000 
     32 N          38.1605    3.6615   37.9445 N.am      9 SEC1        0.0000 
     33 O          31.6530    5.9040   36.1045 O.2      10 ALC2        0.0000 
     34 NZ         38.2435    1.2795   40.4840 N.4      11 LYC3        0.0000 
     35 NZ         38.3675    2.2890   39.7510 N.4      11 LYC3        0.0000 
     36 CA         36.1545    4.1660   36.2240 C.3      12 GLC5        0.0000 
     37 CA         31.9410    4.4160   31.7045 C.3      12 GLC5        0.0000 
     38 CA         35.2460    5.4220   33.3820 C.3      12 GLC5        0.0000 
     39 CA         33.7355    7.1280   32.8930 C.3      12 GLC5        0.0000 
     40 CA         33.9980    5.6620   31.0105 C.3      12 GLC5        0.0000 
     41 CA         36.1930    4.5000   32.8895 C.3      12 GLC5        0.0000 
     42 CA         34.9450    4.7400   30.5180 C.3      12 GLC5        0.0000 
     43 CA         35.0080    0.7415   33.2365 C.3      12 GLC5        0.0000 
     44 CA         36.6107    3.9000   33.8164 C.3      12 GLC5        0.0000 
     45 CA         35.2470    0.4610   34.6228 C.3      12 GLC5        0.0000 
@<TRIPOS>BOND
@<TRIPOS>SUBSTRUCTURE
     1 SEL1        1 GROUP        1 Z    SEL  0     ROOT SEL Z 0
     2 ALL2        4 GROUP        1 Z    ALL  0     **** ALL Z 1
     3 LYL3        5 GROUP        1 Z    LYL  0     **** LYL Z 2
     4 GLL5        7 GROUP        1 Z    GLL  0     **** GLL Z 4
     5 SEP1       13 GROUP        1 Z    SEP  0     **** SEP Z 7
     6 ALP2       19 GROUP        1 Z    ALP  0     **** ALP Z 8
     7 LYP3       20 GROUP        1 Z    LYP  0     **** LYP Z 9
     8 GLP5       21 GROUP        1 Z    GLP  0     **** GLP Z 11
     9 SEC1       27 GROUP        1 Z    SEC  0     **** SEC Z 14
    10 ALC2       33 GROUP        1 Z    ALC  0     **** ALC Z 15
    11 LYC3       34 GROUP        1 Z    LYC  0     **** LYC Z 16
    12 GLC5       36 GROUP        1 Z    GLC  0     **** GLC Z 18
@<TRIPOS>SET

