3a29_2T0_2_ligand
  -OEChem-08111718373D

 28 30  0     1  0  0  0  0  0999 V2000
   37.7860    0.2268   33.3411 H   0  0  0  0  0  0  0  0  0  0  0  0
   38.1314   -0.1851   35.6722 H   0  0  0  0  0  0  0  0  0  0  0  0
   35.3762    2.7723   36.5650 H   0  0  0  0  0  0  0  0  0  0  0  0
   35.7685    1.1427   31.6916 H   0  0  0  0  0  0  0  0  0  0  0  0
   37.1009    2.0865   31.6672 H   0  0  0  0  0  0  0  0  0  0  0  0
   35.9194    3.8687   31.1682 H   0  0  0  0  0  0  0  0  0  0  0  0
   34.6591    2.8637   30.9068 H   0  0  0  0  0  0  0  0  0  0  0  0
   32.0689    6.0982   35.8077 H   0  0  0  0  0  0  0  0  0  0  0  0
   31.6755    6.6730   34.2218 H   0  0  0  0  0  0  0  0  0  0  0  0
   37.2790    0.7630   34.0160 C   0  0  0  0  0  0  0  0  0  0  0  0
   37.4850    0.5180   35.3760 C   0  0  0  0  0  0  0  0  0  0  0  0
   35.8820    2.2390   35.8870 C   0  0  0  0  0  0  0  0  0  0  0  0
   35.6800    2.4800   34.5360 C   0  0  0  0  0  0  0  0  0  0  0  0
   36.3800    1.7410   33.5760 C   0  0  0  0  0  0  0  0  0  0  0  0
   36.7800    1.2640   36.3100 C   0  0  0  0  0  0  0  0  0  0  0  0
   34.7310    3.5180   34.0930 C   0  0  0  0  0  0  0  0  0  0  0  0
   34.5850    3.8070   32.7380 C   0  0  0  0  0  0  0  0  0  0  0  0
   33.1620    5.1280   34.2390 C   0  0  0  0  0  0  0  0  0  0  0  0
   36.1900    1.9700   32.0630 C   0  0  2  0  0  0  0  0  0  0  0  0
   35.3220    3.1830   31.5840 C   0  0  2  0  0  0  0  0  0  0  0  0
   33.9320    4.2580   34.9350 N   0  0  0  0  0  0  0  0  0  0  0  0
   32.2010    6.0650   34.8170 N   0  0  0  0  0  0  0  0  0  0  0  0
   36.8860    1.3660   40.2220 O   0  5  0  0  0  0  0  0  0  0  0  0
   37.1340    3.3850   38.7560 O   0  5  0  0  0  0  0  0  0  0  0  0
   34.9710    2.1740   38.8300 O   0  0  0  0  0  0  0  0  0  0  0  0
   36.9730    1.0300   37.6990 O   0  0  0  0  0  0  0  0  0  0  0  0
   36.4970    1.9720   38.8580 P   0  0  0  0  0  0  0  0  0  0  0  0
   33.4280    5.0270   32.5690 S   0  0  0  0  0  0  0  0  0  0  0  0
  1 10  1  0  0  0  0
  2 11  1  0  0  0  0
  3 12  1  0  0  0  0
  4 19  1  0  0  0  0
  5 19  1  0  0  0  0
  6 20  1  0  0  0  0
  7 20  1  0  0  0  0
  8 22  1  0  0  0  0
  9 22  1  0  0  0  0
 10 11  1  0  0  0  0
 10 14  2  0  0  0  0
 11 15  2  0  0  0  0
 12 13  2  0  0  0  0
 12 15  1  0  0  0  0
 13 14  1  0  0  0  0
 13 16  1  0  0  0  0
 14 19  1  0  0  0  0
 15 26  1  0  0  0  0
 16 17  2  0  0  0  0
 16 21  1  0  0  0  0
 17 20  1  0  0  0  0
 17 28  1  0  0  0  0
 18 21  2  0  0  0  0
 18 22  1  0  0  0  0
 18 28  1  0  0  0  0
 19 20  1  0  0  0  0
 23 27  1  0  0  0  0
 24 27  1  0  0  0  0
 25 27  2  0  0  0  0
 26 27  1  0  0  0  0
M  CHG  2  23  -1  24  -1
M  END
> <scpdb_id>
3a29_2

$$$$
