@<TRIPOS>MOLECULE
3a29_2T0_2_ligand
   28    30     1     0     0
SMALL
NO_CHARGES


@<TRIPOS>ATOM
     1 C1          36.7800     1.2640    36.3100 C.ar         1 2T0401   0.0000
     2 C2          37.4850     0.5180    35.3760 C.ar         1 2T0401   0.0000
     3 C3          37.2790     0.7630    34.0160 C.ar         1 2T0401   0.0000
     4 C4          36.3800     1.7410    33.5760 C.ar         1 2T0401   0.0000
     5 C52         35.6800     2.4800    34.5360 C.ar         1 2T0401   0.0000
     6 C6          35.8820     2.2390    35.8870 C.ar         1 2T0401   0.0000
     7 P8          36.4970     1.9720    38.8580 P.3          1 2T0401   0.0000
     8 C9          34.5850     3.8070    32.7380 C.2          1 2T0401   0.0000
     9 C10         34.7310     3.5180    34.0930 C.2          1 2T0401   0.0000
    10 S11         33.4280     5.0270    32.5690 S.3          1 2T0401   0.0000
    11 C12         33.1620     5.1280    34.2390 C.2          1 2T0401   0.0000
    12 N13         33.9320     4.2580    34.9350 N.2          1 2T0401   0.0000
    13 N14         32.2010     6.0650    34.8170 N.pl3        1 2T0401   0.0000
    14 O18         36.9730     1.0300    37.6990 O.3          1 2T0401   0.0000
    15 C20         35.3220     3.1830    31.5840 C.3          1 2T0401   0.0000
    16 C21         36.1900     1.9700    32.0630 C.3          1 2T0401   0.0000
    17 O26         34.9710     2.1740    38.8300 O.co2        1 2T0401   0.0000
    18 O27         36.8860     1.3660    40.2220 O.co2        1 2T0401  -1.0000
    19 O28         37.1340     3.3850    38.7560 O.co2        1 2T0401  -1.0000
    20 H1          38.1314    -0.1851    35.6722 H            1 2T0401   0.0000
    21 H2          37.7860     0.2268    33.3411 H            1 2T0401   0.0000
    22 H3          35.3762     2.7723    36.5650 H            1 2T0401   0.0000
    23 H4          32.0689     6.0982    35.8077 H            1 2T0401   0.0000
    24 H5          31.6755     6.6730    34.2218 H            1 2T0401   0.0000
    25 H6          35.9194     3.8687    31.1682 H            1 2T0401   0.0000
    26 H7          34.6591     2.8637    30.9068 H            1 2T0401   0.0000
    27 H8          35.7685     1.1427    31.6916 H            1 2T0401   0.0000
    28 H9          37.1009     2.0865    31.6672 H            1 2T0401   0.0000
@<TRIPOS>BOND
     1    1    2      ar
     2    1    6      ar
     3    1   14       1
     4    2    3      ar
     5    3    4      ar
     6    4    5      ar
     7    4   16       1
     8    5    6      ar
     9    5    9       1
    10    7   14       1
    11    7   17      ar
    12    7   18      ar
    13    7   19      ar
    14    8    9       2
    15    8   10       1
    16    8   15       1
    17    9   12       1
    18   10   11       1
    19   11   12       2
    20   11   13       1
    21   15   16       1
    22    2   20       1
    23    3   21       1
    24    6   22       1
    25   13   23       1
    26   13   24       1
    27   15   25       1
    28   15   26       1
    29   16   27       1
    30   16   28       1
@<TRIPOS>SUBSTRUCTURE
     1 2T0401      1 GROUP             4 B     2T0     0 **** 2T0 B 401
