#    Name: 9408
#    Modification time : Tue Aug  8 21:51:12 2017

@<TRIPOS>MOLECULE
9408
   28     0     9     0     0
SMALL
NO_CHARGES


@<TRIPOS>ATOM
      1 N         -28.2370   69.4510 -132.6550 N.am      1 SEL1        0.0000 
      2 N         -23.9930   71.9680 -131.9480 N.am      1 SEL1        0.0000 
      3 N         -26.9060   70.1100 -126.2990 N.am      1 SEL1        0.0000 
      4 N         -24.3310   67.4640 -125.5210 N.am      1 SEL1        0.0000 
      5 O         -23.9930   71.9680 -131.9480 O.2       2 ALL2        0.0000 
      6 O         -24.8660   69.5190 -130.6990 O.2       2 ALL2        0.0000 
      7 O         -26.4620   67.6140 -124.5480 O.2       2 ALL2        0.0000 
      8 CA        -29.7790   71.3810 -131.2560 C.3       3 GLL5        0.0000 
      9 CA        -29.1450   74.4530 -129.6390 C.3       3 GLL5        0.0000 
     10 N         -28.2960   66.1300 -132.6080 N.am      4 SEP1        0.0000 
     11 N         -21.6440   71.3160 -130.5880 N.am      4 SEP1        0.0000 
     12 N         -28.5510   72.2950 -124.9120 N.am      4 SEP1        0.0000 
     13 N         -23.3200   65.1250 -123.5560 N.am      4 SEP1        0.0000 
     14 O         -23.8360   70.1650 -134.0240 O.2       5 ALP2        0.0000 
     15 O         -22.2540   68.7300 -130.4420 O.2       5 ALP2        0.0000 
     16 O         -29.1910   68.3730 -124.1330 O.2       5 ALP2        0.0000 
     17 O         -27.8030   65.1450 -123.3300 O.2       5 ALP2        0.0000 
     18 CA        -30.8940   71.9160 -127.1540 C.3       6 GLP5        0.0000 
     19 N         -28.2665   67.7905 -132.6315 N.am      7 SEC1        0.0000 
     20 N         -22.8185   71.6420 -131.2680 N.am      7 SEC1        0.0000 
     21 N         -27.7285   71.2025 -125.6055 N.am      7 SEC1        0.0000 
     22 N         -23.8255   66.2945 -124.5385 N.am      7 SEC1        0.0000 
     23 O         -23.9145   71.0665 -132.9860 O.2       8 ALC2        0.0000 
     24 O         -23.5600   69.1245 -130.5705 O.2       8 ALC2        0.0000 
     25 O         -27.8265   67.9935 -124.3405 O.2       8 ALC2        0.0000 
     26 O         -27.1325   66.3795 -123.9390 O.2       8 ALC2        0.0000 
     27 CA        -30.3365   71.6485 -129.2050 C.3       9 GLC5        0.0000 
     28 CA        -29.7428   72.8400 -128.4772 C.3       9 GLC5        0.0000 
@<TRIPOS>BOND
@<TRIPOS>SUBSTRUCTURE
     1 SEL1        1 GROUP        1 Z    SEL  0     ROOT SEL Z 0
     2 ALL2        5 GROUP        1 Z    ALL  0     **** ALL Z 1
     3 GLL5        8 GROUP        1 Z    GLL  0     **** GLL Z 4
     4 SEP1       10 GROUP        1 Z    SEP  0     **** SEP Z 7
     5 ALP2       14 GROUP        1 Z    ALP  0     **** ALP Z 8
     6 GLP5       18 GROUP        1 Z    GLP  0     **** GLP Z 11
     7 SEC1       19 GROUP        1 Z    SEC  0     **** SEC Z 14
     8 ALC2       23 GROUP        1 Z    ALC  0     **** ALC Z 15
     9 GLC5       27 GROUP        1 Z    GLC  0     **** GLC Z 18
@<TRIPOS>SET

