@<TRIPOS>MOLECULE
1uak_SAM_1_ligand
   50    52     1     0     0
SMALL
NO_CHARGES


@<TRIPOS>ATOM
     1 N          -31.6940    70.4930  -132.4450 N.4          1 SAM301   1.0000
     2 CA         -30.2450    70.7530  -132.5630 C.3          1 SAM301   0.0000
     3 C          -29.4840    69.4850  -132.9680 C.2          1 SAM301   0.0000
     4 O          -30.0020    68.7740  -133.8490 O.co2        1 SAM301   0.0000
     5 OXT        -28.2370    69.4510  -132.6550 O.co2        1 SAM301  -1.0000
     6 CB         -29.7790    71.3810  -131.2560 C.3          1 SAM301   0.0000
     7 CG         -28.7160    72.4180  -131.4940 C.3          1 SAM301   0.0000
     8 SD         -28.0380    73.0750  -129.9620 S.3          1 SAM301   1.0000
     9 CE         -29.1450    74.4530  -129.6390 C.3          1 SAM301   0.0000
    10 C5'        -26.5680    73.9800  -130.3740 C.3          1 SAM301   0.0000
    11 C4'        -25.2530    73.2250  -130.3190 C.3          1 SAM301   0.0000
    12 O4'        -24.9910    72.7450  -128.9530 O.3          1 SAM301   0.0000
    13 C3'        -25.2450    71.9860  -131.2400 C.3          1 SAM301   0.0000
    14 O3'        -23.9930    71.9680  -131.9480 O.3          1 SAM301   0.0000
    15 C2'        -25.2720    70.8100  -130.2740 C.3          1 SAM301   0.0000
    16 O2'        -24.8660    69.5190  -130.6990 O.3          1 SAM301   0.0000
    17 C1'        -24.7100    71.3620  -128.9440 C.3          1 SAM301   0.0000
    18 N9         -25.3220    70.7160  -127.7840 N.pl3        1 SAM301   0.0000
    19 C8         -26.5340    70.9820  -127.1950 C.2          1 SAM301   0.0000
    20 N7         -26.9060    70.1100  -126.2990 N.2          1 SAM301   0.0000
    21 C5         -25.8050    69.2690  -126.1930 C.ar         1 SAM301   0.0000
    22 C6         -25.5500    68.0990  -125.4180 C.ar         1 SAM301   0.0000
    23 N6         -26.4620    67.6140  -124.5480 N.pl3        1 SAM301   0.0000
    24 N1         -24.3310    67.4640  -125.5210 N.ar         1 SAM301   0.0000
    25 C2         -23.4510    67.9100  -126.4550 C.ar         1 SAM301   0.0000
    26 N3         -23.6230    68.9610  -127.2960 N.ar         1 SAM301   0.0000
    27 C4         -24.8090    69.6270  -127.0960 C.ar         1 SAM301   0.0000
    28 H1         -32.1634    71.3354  -132.1805 H            1 SAM301   0.0000
    29 H2         -32.0485    70.1761  -133.3247 H            1 SAM301   0.0000
    30 HA         -30.1158    71.4294  -133.2881 H            1 SAM301   0.0000
    31 HB1        -29.4082    70.6647  -130.6648 H            1 SAM301   0.0000
    32 HB2        -30.5604    71.8133  -130.8060 H            1 SAM301   0.0000
    33 HG1        -29.1144    73.1713  -132.0173 H            1 SAM301   0.0000
    34 HG2        -27.9745    72.0020  -132.0204 H            1 SAM301   0.0000
    35 HE1        -28.8686    74.9117  -128.7945 H            1 SAM301   0.0000
    36 HE2        -29.1018    75.1007  -130.3997 H            1 SAM301   0.0000
    37 HE3        -30.0807    74.1135  -129.5431 H            1 SAM301   0.0000
    38 H5'1       -26.5002    74.7496  -129.7391 H            1 SAM301   0.0000
    39 H5'2       -26.6782    74.3254  -131.3059 H            1 SAM301   0.0000
    40 H4'        -24.5138    73.8395  -130.5947 H            1 SAM301   0.0000
    41 H3'        -26.0275    71.9772  -131.8626 H            1 SAM301   0.0000
    42 H15        -23.9636    71.1723  -132.5530 H            1 SAM301   0.0000
    43 H2'        -26.2462    70.6930  -130.0812 H            1 SAM301   0.0000
    44 H17        -23.8850    69.4086  -130.5392 H            1 SAM301   0.0000
    45 H1'        -23.7199    71.2237  -128.9181 H            1 SAM301   0.0000
    46 H19        -27.0869    71.7802  -127.4339 H            1 SAM301   0.0000
    47 H20        -26.2582    66.7918  -124.0166 H            1 SAM301   0.0000
    48 H21        -27.3411    68.0771  -124.4352 H            1 SAM301   0.0000
    49 H22        -22.5870    67.4122  -126.5306 H            1 SAM301   0.0000
    50 H23        -31.8513    69.7915  -131.7499 H            1 SAM301   0.0000
@<TRIPOS>BOND
     1    1    2       1
     2    2    3       1
     3    2    6       1
     4    3    4      ar
     5    3    5      ar
     6    6    7       1
     7    7    8       1
     8    8    9       1
     9    8   10       1
    10   10   11       1
    11   11   12       1
    12   11   13       1
    13   12   17       1
    14   13   14       1
    15   13   15       1
    16   15   16       1
    17   15   17       1
    18   17   18       1
    19   18   19       1
    20   18   27       1
    21   19   20       2
    22   20   21       1
    23   21   22      ar
    24   21   27      ar
    25   22   23       1
    26   22   24      ar
    27   24   25      ar
    28   25   26      ar
    29   26   27      ar
    30    1   28       1
    31    1   29       1
    32    2   30       1
    33    1   50       1
    34    6   31       1
    35    6   32       1
    36    7   33       1
    37    7   34       1
    38    9   35       1
    39    9   36       1
    40    9   37       1
    41   10   38       1
    42   10   39       1
    43   11   40       1
    44   13   41       1
    45   14   42       1
    46   15   43       1
    47   16   44       1
    48   17   45       1
    49   19   46       1
    50   23   47       1
    51   23   48       1
    52   25   49       1
@<TRIPOS>SUBSTRUCTURE
     1 SAM301      1 GROUP             4 A     SAM     0 **** SAM A 301
