1uak_SAM_1_ligand
  -OEChem-08111718373D

 50 52  0     1  0  0  0  0  0999 V2000
  -22.5870   67.4122 -126.5306 H   0  0  0  0  0  0  0  0  0  0  0  0
  -27.0869   71.7802 -127.4339 H   0  0  0  0  0  0  0  0  0  0  0  0
  -26.0275   71.9772 -131.8626 H   0  0  0  0  0  0  0  0  0  0  0  0
  -26.2462   70.6930 -130.0812 H   0  0  0  0  0  0  0  0  0  0  0  0
  -24.5138   73.8395 -130.5947 H   0  0  0  0  0  0  0  0  0  0  0  0
  -23.7199   71.2237 -128.9181 H   0  0  0  0  0  0  0  0  0  0  0  0
  -28.8686   74.9117 -128.7945 H   0  0  0  0  0  0  0  0  0  0  0  0
  -29.1018   75.1007 -130.3997 H   0  0  0  0  0  0  0  0  0  0  0  0
  -30.0807   74.1135 -129.5431 H   0  0  0  0  0  0  0  0  0  0  0  0
  -26.5002   74.7496 -129.7391 H   0  0  0  0  0  0  0  0  0  0  0  0
  -26.6782   74.3254 -131.3059 H   0  0  0  0  0  0  0  0  0  0  0  0
  -29.4082   70.6647 -130.6648 H   0  0  0  0  0  0  0  0  0  0  0  0
  -30.5604   71.8133 -130.8060 H   0  0  0  0  0  0  0  0  0  0  0  0
  -29.1144   73.1713 -132.0173 H   0  0  0  0  0  0  0  0  0  0  0  0
  -27.9745   72.0020 -132.0204 H   0  0  0  0  0  0  0  0  0  0  0  0
  -30.1158   71.4294 -133.2881 H   0  0  0  0  0  0  0  0  0  0  0  0
  -26.2582   66.7918 -124.0166 H   0  0  0  0  0  0  0  0  0  0  0  0
  -27.3411   68.0771 -124.4352 H   0  0  0  0  0  0  0  0  0  0  0  0
  -32.0485   70.1760 -133.3247 H   0  0  0  0  0  0  0  0  0  0  0  0
  -32.1634   71.3355 -132.1805 H   0  0  0  0  0  0  0  0  0  0  0  0
  -23.9636   71.1723 -132.5530 H   0  0  0  0  0  0  0  0  0  0  0  0
  -23.8850   69.4086 -130.5392 H   0  0  0  0  0  0  0  0  0  0  0  0
  -23.4510   67.9100 -126.4550 C   0  0  0  0  0  0  0  0  0  0  0  0
  -26.5340   70.9820 -127.1950 C   0  0  0  0  0  0  0  0  0  0  0  0
  -25.8050   69.2690 -126.1930 C   0  0  0  0  0  0  0  0  0  0  0  0
  -24.8090   69.6270 -127.0960 C   0  0  0  0  0  0  0  0  0  0  0  0
  -25.5500   68.0990 -125.4180 C   0  0  0  0  0  0  0  0  0  0  0  0
  -29.4840   69.4850 -132.9680 C   0  0  0  0  0  0  0  0  0  0  0  0
  -25.2450   71.9860 -131.2400 C   0  0  1  0  0  0  0  0  0  0  0  0
  -25.2720   70.8100 -130.2740 C   0  0  2  0  0  0  0  0  0  0  0  0
  -25.2530   73.2250 -130.3190 C   0  0  1  0  0  0  0  0  0  0  0  0
  -24.7100   71.3620 -128.9440 C   0  0  2  0  0  0  0  0  0  0  0  0
  -29.1450   74.4530 -129.6390 C   0  0  0  0  0  0  0  0  0  0  0  0
  -26.5680   73.9800 -130.3740 C   0  0  1  0  0  0  0  0  0  0  0  0
  -29.7790   71.3810 -131.2560 C   0  0  1  0  0  0  0  0  0  0  0  0
  -28.7160   72.4180 -131.4940 C   0  0  2  0  0  0  0  0  0  0  0  0
  -30.2450   70.7530 -132.5630 C   0  0  2  0  0  0  0  0  0  0  0  0
  -23.6230   68.9610 -127.2960 N   0  0  0  0  0  0  0  0  0  0  0  0
  -24.3310   67.4640 -125.5210 N   0  0  0  0  0  0  0  0  0  0  0  0
  -26.9060   70.1100 -126.2990 N   0  0  0  0  0  0  0  0  0  0  0  0
  -25.3220   70.7160 -127.7840 N   0  0  0  0  0  0  0  0  0  0  0  0
  -26.4620   67.6140 -124.5480 N   0  0  0  0  0  0  0  0  0  0  0  0
  -31.6940   70.4930 -132.4450 N   0  3  0  0  0  0  0  0  0  0  0  0
  -28.2370   69.4510 -132.6550 O   0  5  0  0  0  0  0  0  0  0  0  0
  -30.0020   68.7740 -133.8490 O   0  0  0  0  0  0  0  0  0  0  0  0
  -24.9910   72.7450 -128.9530 O   0  0  0  0  0  0  0  0  0  0  0  0
  -23.9930   71.9680 -131.9480 O   0  0  0  0  0  0  0  0  0  0  0  0
  -24.8660   69.5190 -130.6990 O   0  0  0  0  0  0  0  0  0  0  0  0
  -28.0380   73.0750 -129.9620 S   0  3  2  0  0  0  0  0  0  0  0  0
  -31.8513   69.7915 -131.7499 H   0  0  0  0  0  0  0  0  0  0  0  0
  1 23  1  0  0  0  0
  2 24  1  0  0  0  0
  3 29  1  0  0  0  0
  4 30  1  0  0  0  0
  5 31  1  0  0  0  0
  6 32  1  0  0  0  0
  7 33  1  0  0  0  0
  8 33  1  0  0  0  0
  9 33  1  0  0  0  0
 10 34  1  0  0  0  0
 11 34  1  0  0  0  0
 12 35  1  0  0  0  0
 13 35  1  0  0  0  0
 14 36  1  0  0  0  0
 15 36  1  0  0  0  0
 16 37  1  0  0  0  0
 17 42  1  0  0  0  0
 18 42  1  0  0  0  0
 19 43  1  0  0  0  0
 20 43  1  0  0  0  0
 21 47  1  0  0  0  0
 22 48  1  0  0  0  0
 23 38  1  0  0  0  0
 23 39  2  0  0  0  0
 24 40  2  0  0  0  0
 24 41  1  0  0  0  0
 25 26  1  0  0  0  0
 25 27  2  0  0  0  0
 25 40  1  0  0  0  0
 26 38  2  0  0  0  0
 26 41  1  0  0  0  0
 27 39  1  0  0  0  0
 27 42  1  0  0  0  0
 28 37  1  0  0  0  0
 28 44  1  0  0  0  0
 28 45  2  0  0  0  0
 29 30  1  0  0  0  0
 29 31  1  0  0  0  0
 29 47  1  0  0  0  0
 30 32  1  0  0  0  0
 30 48  1  0  0  0  0
 31 34  1  0  0  0  0
 31 46  1  0  0  0  0
 32 41  1  0  0  0  0
 32 46  1  0  0  0  0
 33 49  1  0  0  0  0
 34 49  1  0  0  0  0
 35 36  1  0  0  0  0
 35 37  1  0  0  0  0
 36 49  1  0  0  0  0
 37 43  1  0  0  0  0
 43 50  1  0  0  0  0
M  CHG  3  43   1  44  -1  49   1
M  END
> <scpdb_id>
1uak_1

$$$$
