#    Name: 10523
#    Modification time : Wed Aug  9 01:13:58 2017

@<TRIPOS>MOLECULE
10523
   69     0    12     0     0
SMALL
NO_CHARGES


@<TRIPOS>ATOM
      1 N          14.4020   24.2590   30.7110 N.am      1 SEL1        0.0000 
      2 N           1.8300   17.2340   34.3920 N.am      1 SEL1        0.0000 
      3 N           4.7990   15.1780   32.7580 N.am      1 SEL1        0.0000 
      4 O           9.4840   23.1060   29.8090 O.2       2 ALL2        0.0000 
      5 O           6.7050   22.4480   27.4340 O.2       2 ALL2        0.0000 
      6 O           6.5560   21.5950   30.9730 O.2       2 ALL2        0.0000 
      7 O           4.7990   15.1780   32.7580 O.2       2 ALL2        0.0000 
      8 OD1         6.7050   22.4480   27.4340 O.co2     3 ASL4        0.0000 
      9 CA         13.0520   22.2830   30.6220 C.3       4 GLL5        0.0000 
     10 CA         -1.5140   15.2720   31.1550 C.3       4 GLL5        0.0000 
     11 CA         -0.7470   13.1140   30.1970 C.3       4 GLL5        0.0000 
     12 CA         12.0360   24.4380   30.2860 C.3       4 GLL5        0.0000 
     13 CA          5.0990   20.4040   32.5400 C.3       4 GLL5        0.0000 
     14 CA          4.7440   20.1480   33.8810 C.3       4 GLL5        0.0000 
     15 CA          3.9270   19.0680   34.2100 C.3       4 GLL5        0.0000 
     16 CA          2.5290   15.9180   32.6200 C.3       4 GLL5        0.0000 
     17 CA          3.2750   13.9260   31.4340 C.3       4 GLL5        0.0000 
     18 CA         11.8860   23.0360   30.3770 C.3       4 GLL5        0.0000 
     19 N          17.4140   24.8550   30.3110 N.am      5 SEP1        0.0000 
     20 N          -0.4730   18.0640   36.0160 N.am      5 SEP1        0.0000 
     21 N           7.0830   16.8040   31.7610 N.am      5 SEP1        0.0000 
     22 O           9.2400   26.0490   29.7330 O.2       6 ALP2        0.0000 
     23 O           6.3920   20.0250   28.5030 O.2       6 ALP2        0.0000 
     24 O           5.9990   20.6430   25.1210 O.2       6 ALP2        0.0000 
     25 O           7.3050   23.8470   24.9930 O.2       6 ALP2        0.0000 
     26 O           7.4900   18.5920   29.6980 O.2       6 ALP2        0.0000 
     27 O           6.1980   13.1210   31.9330 O.2       6 ALP2        0.0000 
     28 O           7.9820   14.4000   31.6260 O.2       6 ALP2        0.0000 
     29 OD1         6.3920   20.0250   28.5030 O.co2     7 ASP4        0.0000 
     30 CA         14.5920   22.5620   34.0650 C.3       8 GLP5        0.0000 
     31 CA         13.2410   18.3640   31.9260 C.3       8 GLP5        0.0000 
     32 CA         -2.5730   17.8480   33.6460 C.3       8 GLP5        0.0000 
     33 CA         -0.6570   13.7560   34.4310 C.3       8 GLP5        0.0000 
     34 CA         -2.9390   10.8980   32.3260 C.3       8 GLP5        0.0000 
     35 CA         -0.4290   14.1190   26.4300 C.3       8 GLP5        0.0000 
     36 CA         12.8020   24.5150   26.5710 C.3       8 GLP5        0.0000 
     37 CA         12.2520   20.5590   27.0840 C.3       8 GLP5        0.0000 
     38 CA          8.8470   21.2470   33.6910 C.3       8 GLP5        0.0000 
     39 CA          7.9540   17.7290   35.2730 C.3       8 GLP5        0.0000 
     40 CA          4.1970   16.1410   36.2780 C.3       8 GLP5        0.0000 
     41 CA          2.8760   11.0880   34.4270 C.3       8 GLP5        0.0000 
     42 CA         10.7980   22.7670   34.1460 C.3       8 GLP5        0.0000 
     43 N          15.9080   24.5570   30.5110 N.am      9 SEC1        0.0000 
     44 N           0.6785   17.6490   35.2040 N.am      9 SEC1        0.0000 
     45 N           5.9410   15.9910   32.2595 N.am      9 SEC1        0.0000 
     46 O           9.3620   24.5775   29.7710 O.2      10 ALC2        0.0000 
     47 O           6.5485   21.2365   27.9685 O.2      10 ALC2        0.0000 
     48 O           6.3520   21.5455   26.2775 O.2      10 ALC2        0.0000 
     49 O           7.0050   23.1475   26.2135 O.2      10 ALC2        0.0000 
     50 O           7.0230   20.0935   30.3355 O.2      10 ALC2        0.0000 
     51 O           6.4740   20.8100   29.7380 O.2      10 ALC2        0.0000 
     52 O           5.4985   14.1495   32.3455 O.2      10 ALC2        0.0000 
     53 O           6.3905   14.7890   32.1920 O.2      10 ALC2        0.0000 
     54 OD1         6.5485   21.2365   27.9685 O.co2    11 ASC4        0.0000 
     55 CA         13.8220   22.4225   32.3435 C.3      12 GLC5        0.0000 
     56 CA         13.1465   20.3235   31.2740 C.3      12 GLC5        0.0000 
     57 CA         -2.0435   16.5600   32.4005 C.3      12 GLC5        0.0000 
     58 CA         -1.0855   14.5140   32.7930 C.3      12 GLC5        0.0000 
     59 CA         -0.7020   13.4350   32.3140 C.3      12 GLC5        0.0000 
     60 CA         -1.8430   12.0060   31.2615 C.3      12 GLC5        0.0000 
     61 CA         -0.5880   13.6165   28.3135 C.3      12 GLC5        0.0000 
     62 CA         12.3815   24.1260   28.4513 C.3      12 GLC5        0.0000 
     63 CA         12.3605   21.6092   28.7918 C.3      12 GLC5        0.0000 
     64 CA          6.8842   20.7615   33.4507 C.3      12 GLC5        0.0000 
     65 CA          6.1448   18.6685   34.6593 C.3      12 GLC5        0.0000 
     66 CA          3.9595   17.3888   34.9838 C.3      12 GLC5        0.0000 
     67 CA          3.6320   15.8057   34.3712 C.3      12 GLC5        0.0000 
     68 CA          2.7565   12.4610   32.8060 C.3      12 GLC5        0.0000 
     69 CA         11.5065   22.9826   32.2807 C.3      12 GLC5        0.0000 
@<TRIPOS>BOND
@<TRIPOS>SUBSTRUCTURE
     1 SEL1        1 GROUP        1 Z    SEL  0     ROOT SEL Z 0
     2 ALL2        4 GROUP        1 Z    ALL  0     **** ALL Z 1
     3 ASL4        8 GROUP        1 Z    ASL  0     **** ASL Z 3
     4 GLL5        9 GROUP        1 Z    GLL  0     **** GLL Z 4
     5 SEP1       19 GROUP        1 Z    SEP  0     **** SEP Z 7
     6 ALP2       22 GROUP        1 Z    ALP  0     **** ALP Z 8
     7 ASP4       29 GROUP        1 Z    ASP  0     **** ASP Z 10
     8 GLP5       30 GROUP        1 Z    GLP  0     **** GLP Z 11
     9 SEC1       43 GROUP        1 Z    SEC  0     **** SEC Z 14
    10 ALC2       46 GROUP        1 Z    ALC  0     **** ALC Z 15
    11 ASC4       54 GROUP        1 Z    ASC  0     **** ASC Z 17
    12 GLC5       55 GROUP        1 Z    GLC  0     **** GLC Z 18
@<TRIPOS>SET

