@<TRIPOS>MOLECULE
1xh4_R69_1_ligand
   69    72     1     0     0
SMALL
NO_CHARGES


@<TRIPOS>ATOM
     1 O22         10.4770    21.1160    30.2560 O.2          1 R69351   0.0000
     2 C21         10.5970    22.3480    30.1630 C.2          1 R69351   0.0000
     3 C14         11.8860    23.0360    30.3770 C.ar         1 R69351   0.0000
     4 C13         13.0520    22.2830    30.6220 C.ar         1 R69351   0.0000
     5 C12         14.2860    22.9300    30.7630 C.ar         1 R69351   0.0000
     6 N11         14.4020    24.2590    30.7110 N.ar         1 R69351   0.0000
     7 C16         13.3120    25.0040    30.4780 C.ar         1 R69351   0.0000
     8 C15         12.0360    24.4380    30.2860 C.ar         1 R69351   0.0000
     9 N23          9.4840    23.1060    29.8090 N.am         1 R69351   0.0000
    10 C31          8.2370    22.5120    29.3400 C.3          1 R69351   0.0000
    11 C32          8.0340    22.9900    27.8980 C.3          1 R69351   0.0000
    12 N33          6.7050    22.4480    27.4340 N.4          1 R69351   1.0000
    13 C34          5.5070    23.3440    27.6050 C.3          1 R69351   0.0000
    14 C35          4.9730    23.2960    29.0250 C.3          1 R69351   0.0000
    15 C36          6.0280    23.8390    30.0020 C.3          1 R69351   0.0000
    16 C37          7.1380    22.8470    30.4060 C.3          1 R69351   0.0000
    17 N41          6.5560    21.5950    30.9730 N.am         1 R69351   0.0000
    18 C42          5.9010    21.5730    32.2130 C.2          1 R69351   0.0000
    19 O43          5.9260    22.5290    33.0120 O.2          1 R69351   0.0000
    20 C51          5.0990    20.4040    32.5400 C.ar         1 R69351   0.0000
    21 C52          4.7440    20.1480    33.8810 C.ar         1 R69351   0.0000
    22 C53          3.9270    19.0680    34.2100 C.ar         1 R69351   0.0000
    23 C56          4.6540    19.5510    31.5100 C.ar         1 R69351   0.0000
    24 C55          3.8840    18.4530    31.8250 C.ar         1 R69351   0.0000
    25 C54          3.5170    18.2050    33.1690 C.ar         1 R69351   0.0000
    26 C61          2.6330    17.0780    33.4470 C.2          1 R69351   0.0000
    27 O62          1.8300    17.2340    34.3920 O.2          1 R69351   0.0000
    28 C71          2.5290    15.9180    32.6200 C.ar         1 R69351   0.0000
    29 C72          3.6050    15.0230    32.3090 C.ar         1 R69351   0.0000
    30 O92          4.7990    15.1780    32.7580 O.3          1 R69351   0.0000
    31 C73          3.2750    13.9260    31.4340 C.ar         1 R69351   0.0000
    32 C74          1.9990    13.7420    30.9360 C.ar         1 R69351   0.0000
    33 C76          1.2470    15.6980    32.1010 C.ar         1 R69351   0.0000
    34 C75          0.9520    14.6270    31.2730 C.ar         1 R69351   0.0000
    35 N95         -0.3710    14.4470    30.7200 N.pl3        1 R69351   0.0000
    36 C98         -1.5140    15.2720    31.1550 C.3          1 R69351   0.0000
    37 C99         -0.7470    13.1140    30.1970 C.3          1 R69351   0.0000
    38 H1          12.9981    21.2871    30.6951 H            1 R69351   0.0000
    39 H2          15.1074    22.3783    30.9074 H            1 R69351   0.0000
    40 H3          13.4082    25.9986    30.4390 H            1 R69351   0.0000
    41 H4          11.2476    25.0204    30.0881 H            1 R69351   0.0000
    42 H5           9.5421    24.1018    29.8794 H            1 R69351   0.0000
    43 H6           8.3562    21.5193    29.3217 H            1 R69351   0.0000
    44 H7           8.7685    22.6428    27.3149 H            1 R69351   0.0000
    45 H8           8.0270    23.9895    27.8657 H            1 R69351   0.0000
    46 H9           6.5277    21.6059    27.9433 H            1 R69351   0.0000
    47 H10          4.7874    23.0473    26.9772 H            1 R69351   0.0000
    48 H11          5.7711    24.2840    27.3890 H            1 R69351   0.0000
    49 H12          4.7551    22.3500    29.2651 H            1 R69351   0.0000
    50 H13          4.1458    23.8546    29.0868 H            1 R69351   0.0000
    51 H14          5.5558    24.1278    30.8349 H            1 R69351   0.0000
    52 H15          6.4641    24.6308    29.5745 H            1 R69351   0.0000
    53 H16          7.6240    23.2831    31.1634 H            1 R69351   0.0000
    54 H17          6.6356    20.7450    30.4523 H            1 R69351   0.0000
    55 H18          5.0829    20.7491    34.6048 H            1 R69351   0.0000
    56 H19          3.6396    18.9086    35.1544 H            1 R69351   0.0000
    57 H20          4.8952    19.7413    30.5584 H            1 R69351   0.0000
    58 H21          3.5838    17.8301    31.1026 H            1 R69351   0.0000
    59 H22          5.5148    14.5248    32.5111 H            1 R69351   0.0000
    60 H23          3.9922    13.2774    31.1792 H            1 R69351   0.0000
    61 H24          1.8145    12.9701    30.3276 H            1 R69351   0.0000
    62 H25          0.5163    16.3386    32.3371 H            1 R69351   0.0000
    63 H26         -2.3350    14.9935    30.6565 H            1 R69351   0.0000
    64 H27         -1.6612    15.1468    32.1361 H            1 R69351   0.0000
    65 H28         -1.3206    16.2350    30.9672 H            1 R69351   0.0000
    66 H29         -1.6844    13.1443    29.8502 H            1 R69351   0.0000
    67 H30         -0.1256    12.8592    29.4561 H            1 R69351   0.0000
    68 H31         -0.6849    12.4381    30.9314 H            1 R69351   0.0000
    69 H32          6.7881    22.2372    26.4600 H            1 R69351   0.0000
@<TRIPOS>BOND
     1    1    2       2
     2    2    3       1
     3    2    9      am
     4    3    4      ar
     5    3    8      ar
     6    4    5      ar
     7    5    6      ar
     8    6    7      ar
     9    7    8      ar
    10    9   10       1
    11   10   11       1
    12   10   16       1
    13   11   12       1
    14   12   13       1
    15   13   14       1
    16   14   15       1
    17   15   16       1
    18   16   17       1
    19   17   18      am
    20   18   19       2
    21   18   20       1
    22   20   21      ar
    23   20   23      ar
    24   21   22      ar
    25   22   25      ar
    26   23   24      ar
    27   24   25      ar
    28   25   26       1
    29   26   27       2
    30   26   28       1
    31   28   29      ar
    32   28   33      ar
    33   29   30       1
    34   29   31      ar
    35   31   32      ar
    36   32   34      ar
    37   33   34      ar
    38   34   35       1
    39   35   36       1
    40   35   37       1
    41    4   38       1
    42    5   39       1
    43    7   40       1
    44    8   41       1
    45    9   42       1
    46   10   43       1
    47   11   44       1
    48   11   45       1
    49   12   46       1
    50   13   47       1
    51   13   48       1
    52   14   49       1
    53   14   50       1
    54   15   51       1
    55   15   52       1
    56   16   53       1
    57   17   54       1
    58   21   55       1
    59   22   56       1
    60   23   57       1
    61   24   58       1
    62   30   59       1
    63   31   60       1
    64   32   61       1
    65   33   62       1
    66   36   63       1
    67   36   64       1
    68   36   65       1
    69   37   66       1
    70   37   67       1
    71   37   68       1
    72   12   69       1
@<TRIPOS>SUBSTRUCTURE
     1 R69351      1 GROUP             4 A     R69     0 **** R69 A 351
