1xh4_R69_1_ligand
  -OEChem-08111718373D

 69 72  0     1  0  0  0  0  0999 V2000
    3.6396   18.9086   35.1544 H   0  0  0  0  0  0  0  0  0  0  0  0
    3.5838   17.8301   31.1026 H   0  0  0  0  0  0  0  0  0  0  0  0
    5.0829   20.7491   34.6048 H   0  0  0  0  0  0  0  0  0  0  0  0
    4.8952   19.7413   30.5584 H   0  0  0  0  0  0  0  0  0  0  0  0
    1.8145   12.9701   30.3276 H   0  0  0  0  0  0  0  0  0  0  0  0
    3.9922   13.2774   31.1792 H   0  0  0  0  0  0  0  0  0  0  0  0
   12.9981   21.2871   30.6951 H   0  0  0  0  0  0  0  0  0  0  0  0
   11.2476   25.0204   30.0881 H   0  0  0  0  0  0  0  0  0  0  0  0
    0.5163   16.3386   32.3371 H   0  0  0  0  0  0  0  0  0  0  0  0
   15.1074   22.3783   30.9074 H   0  0  0  0  0  0  0  0  0  0  0  0
   13.4082   25.9986   30.4390 H   0  0  0  0  0  0  0  0  0  0  0  0
    4.7551   22.3500   29.2651 H   0  0  0  0  0  0  0  0  0  0  0  0
    4.1458   23.8546   29.0868 H   0  0  0  0  0  0  0  0  0  0  0  0
    5.5558   24.1278   30.8349 H   0  0  0  0  0  0  0  0  0  0  0  0
    6.4641   24.6308   29.5745 H   0  0  0  0  0  0  0  0  0  0  0  0
    4.7874   23.0473   26.9772 H   0  0  0  0  0  0  0  0  0  0  0  0
    5.7711   24.2840   27.3890 H   0  0  0  0  0  0  0  0  0  0  0  0
    8.7685   22.6428   27.3149 H   0  0  0  0  0  0  0  0  0  0  0  0
    8.0270   23.9895   27.8657 H   0  0  0  0  0  0  0  0  0  0  0  0
    7.6240   23.2831   31.1634 H   0  0  0  0  0  0  0  0  0  0  0  0
    8.3562   21.5193   29.3217 H   0  0  0  0  0  0  0  0  0  0  0  0
   -2.3350   14.9935   30.6565 H   0  0  0  0  0  0  0  0  0  0  0  0
   -1.6612   15.1468   32.1361 H   0  0  0  0  0  0  0  0  0  0  0  0
   -1.3206   16.2350   30.9672 H   0  0  0  0  0  0  0  0  0  0  0  0
   -1.6844   13.1443   29.8502 H   0  0  0  0  0  0  0  0  0  0  0  0
   -0.1256   12.8592   29.4561 H   0  0  0  0  0  0  0  0  0  0  0  0
   -0.6849   12.4381   30.9314 H   0  0  0  0  0  0  0  0  0  0  0  0
    6.6356   20.7450   30.4523 H   0  0  0  0  0  0  0  0  0  0  0  0
    9.5421   24.1018   29.8794 H   0  0  0  0  0  0  0  0  0  0  0  0
    6.5277   21.6059   27.9433 H   0  0  0  0  0  0  0  0  0  0  0  0
    5.5148   14.5248   32.5111 H   0  0  0  0  0  0  0  0  0  0  0  0
    3.9270   19.0680   34.2100 C   0  0  0  0  0  0  0  0  0  0  0  0
    3.8840   18.4530   31.8250 C   0  0  0  0  0  0  0  0  0  0  0  0
    4.7440   20.1480   33.8810 C   0  0  0  0  0  0  0  0  0  0  0  0
    4.6540   19.5510   31.5100 C   0  0  0  0  0  0  0  0  0  0  0  0
    1.9990   13.7420   30.9360 C   0  0  0  0  0  0  0  0  0  0  0  0
    3.2750   13.9260   31.4340 C   0  0  0  0  0  0  0  0  0  0  0  0
   13.0520   22.2830   30.6220 C   0  0  0  0  0  0  0  0  0  0  0  0
   12.0360   24.4380   30.2860 C   0  0  0  0  0  0  0  0  0  0  0  0
    1.2470   15.6980   32.1010 C   0  0  0  0  0  0  0  0  0  0  0  0
   14.2860   22.9300   30.7630 C   0  0  0  0  0  0  0  0  0  0  0  0
   13.3120   25.0040   30.4780 C   0  0  0  0  0  0  0  0  0  0  0  0
    3.5170   18.2050   33.1690 C   0  0  0  0  0  0  0  0  0  0  0  0
    5.0990   20.4040   32.5400 C   0  0  0  0  0  0  0  0  0  0  0  0
   11.8860   23.0360   30.3770 C   0  0  0  0  0  0  0  0  0  0  0  0
    2.5290   15.9180   32.6200 C   0  0  0  0  0  0  0  0  0  0  0  0
    0.9520   14.6270   31.2730 C   0  0  0  0  0  0  0  0  0  0  0  0
    3.6050   15.0230   32.3090 C   0  0  0  0  0  0  0  0  0  0  0  0
    2.6330   17.0780   33.4470 C   0  0  0  0  0  0  0  0  0  0  0  0
    5.9010   21.5730   32.2130 C   0  0  0  0  0  0  0  0  0  0  0  0
   10.5970   22.3480   30.1630 C   0  0  0  0  0  0  0  0  0  0  0  0
    4.9730   23.2960   29.0250 C   0  0  1  0  0  0  0  0  0  0  0  0
    6.0280   23.8390   30.0020 C   0  0  2  0  0  0  0  0  0  0  0  0
    5.5070   23.3440   27.6050 C   0  0  1  0  0  0  0  0  0  0  0  0
    8.0340   22.9900   27.8980 C   0  0  2  0  0  0  0  0  0  0  0  0
    7.1380   22.8470   30.4060 C   0  0  2  0  0  0  0  0  0  0  0  0
    8.2370   22.5120   29.3400 C   0  0  2  0  0  0  0  0  0  0  0  0
   -1.5140   15.2720   31.1550 C   0  0  0  0  0  0  0  0  0  0  0  0
   -0.7470   13.1140   30.1970 C   0  0  0  0  0  0  0  0  0  0  0  0
   14.4020   24.2590   30.7110 N   0  0  0  0  0  0  0  0  0  0  0  0
    6.5560   21.5950   30.9730 N   0  0  0  0  0  0  0  0  0  0  0  0
    9.4840   23.1060   29.8090 N   0  0  0  0  0  0  0  0  0  0  0  0
   -0.3710   14.4470   30.7200 N   0  0  0  0  0  0  0  0  0  0  0  0
    6.7050   22.4480   27.4340 N   0  3  1  0  0  0  0  0  0  0  0  0
    1.8300   17.2340   34.3920 O   0  0  0  0  0  0  0  0  0  0  0  0
    5.9260   22.5290   33.0120 O   0  0  0  0  0  0  0  0  0  0  0  0
   10.4770   21.1160   30.2560 O   0  0  0  0  0  0  0  0  0  0  0  0
    4.7990   15.1780   32.7580 O   0  0  0  0  0  0  0  0  0  0  0  0
    6.7881   22.2372   26.4600 H   0  0  0  0  0  0  0  0  0  0  0  0
  1 32  1  0  0  0  0
  2 33  1  0  0  0  0
  3 34  1  0  0  0  0
  4 35  1  0  0  0  0
  5 36  1  0  0  0  0
  6 37  1  0  0  0  0
  7 38  1  0  0  0  0
  8 39  1  0  0  0  0
  9 40  1  0  0  0  0
 10 41  1  0  0  0  0
 11 42  1  0  0  0  0
 12 52  1  0  0  0  0
 13 52  1  0  0  0  0
 14 53  1  0  0  0  0
 15 53  1  0  0  0  0
 16 54  1  0  0  0  0
 17 54  1  0  0  0  0
 18 55  1  0  0  0  0
 19 55  1  0  0  0  0
 20 56  1  0  0  0  0
 21 57  1  0  0  0  0
 22 58  1  0  0  0  0
 23 58  1  0  0  0  0
 24 58  1  0  0  0  0
 25 59  1  0  0  0  0
 26 59  1  0  0  0  0
 27 59  1  0  0  0  0
 28 61  1  0  0  0  0
 29 62  1  0  0  0  0
 30 64  1  0  0  0  0
 31 68  1  0  0  0  0
 32 34  1  0  0  0  0
 32 43  2  0  0  0  0
 33 35  2  0  0  0  0
 33 43  1  0  0  0  0
 34 44  2  0  0  0  0
 35 44  1  0  0  0  0
 36 37  2  0  0  0  0
 36 47  1  0  0  0  0
 37 48  1  0  0  0  0
 38 41  1  0  0  0  0
 38 45  2  0  0  0  0
 39 42  2  0  0  0  0
 39 45  1  0  0  0  0
 40 46  1  0  0  0  0
 40 47  2  0  0  0  0
 41 60  2  0  0  0  0
 42 60  1  0  0  0  0
 43 49  1  0  0  0  0
 44 50  1  0  0  0  0
 45 51  1  0  0  0  0
 46 48  2  0  0  0  0
 46 49  1  0  0  0  0
 47 63  1  0  0  0  0
 48 68  1  0  0  0  0
 49 65  2  0  0  0  0
 50 61  1  0  0  0  0
 50 66  2  0  0  0  0
 51 62  1  0  0  0  0
 51 67  2  0  0  0  0
 52 53  1  0  0  0  0
 52 54  1  0  0  0  0
 53 56  1  0  0  0  0
 54 64  1  0  0  0  0
 55 57  1  0  0  0  0
 55 64  1  0  0  0  0
 56 57  1  0  0  0  0
 56 61  1  0  0  0  0
 57 62  1  0  0  0  0
 58 63  1  0  0  0  0
 59 63  1  0  0  0  0
 64 69  1  0  0  0  0
M  CHG  1  64   1
M  END
> <scpdb_id>
1xh4_1

$$$$
