#    Name: 2693
#    Modification time : Tue Aug  8 18:57:59 2017

@<TRIPOS>MOLECULE
2693
   37     0     9     0     0
SMALL
NO_CHARGES


@<TRIPOS>ATOM
      1 N          37.1760   73.5270   91.6030 N.am      1 SEL1        0.0000 
      2 N          35.5530   77.9610   85.9760 N.am      1 SEL1        0.0000 
      3 O          36.9030   75.4940   88.1600 O.2       2 ALL2        0.0000 
      4 O          38.4180   77.9780   94.0680 O.2       2 ALL2        0.0000 
      5 CA         36.6270   72.2590   87.6000 C.3       3 GLL5        0.0000 
      6 CA         37.3020   77.9120   88.5770 C.3       3 GLL5        0.0000 
      7 CA         37.5940   77.7690   90.0370 C.3       3 GLL5        0.0000 
      8 CA         38.7760   78.2960   90.5360 C.3       3 GLL5        0.0000 
      9 CA         38.1220   77.8270   92.7440 C.3       3 GLL5        0.0000 
     10 CA         32.0250   73.5020   90.1770 C.3       3 GLL5        0.0000 
     11 CA         36.9300   77.2640   92.3010 C.3       3 GLL5        0.0000 
     12 N          39.9890   74.8110   92.2760 N.am      4 SEP1        0.0000 
     13 N          33.5520   80.0840   86.4300 N.am      4 SEP1        0.0000 
     14 N          37.6000   79.8930   84.8110 N.am      4 SEP1        0.0000 
     15 O          39.5230   74.7860   87.2980 O.2       5 ALP2        0.0000 
     16 O          36.2490   76.5270   95.0620 O.2       5 ALP2        0.0000 
     17 CA         40.0990   72.9770   90.0110 C.3       6 GLP5        0.0000 
     18 CA         37.4530   77.5280   84.2180 C.3       6 GLP5        0.0000 
     19 CA         40.6380   79.7370   87.1640 C.3       6 GLP5        0.0000 
     20 CA         33.8240   77.5810   92.0560 C.3       6 GLP5        0.0000 
     21 CA         32.2200   77.6410   90.0450 C.3       6 GLP5        0.0000 
     22 CA         40.3360   82.0740   90.3370 C.3       6 GLP5        0.0000 
     23 CA         34.4770   80.1470   93.8260 C.3       6 GLP5        0.0000 
     24 N          38.5825   74.1690   91.9395 N.am      7 SEC1        0.0000 
     25 N          34.5525   79.0225   86.2030 N.am      7 SEC1        0.0000 
     26 N          36.5765   78.9270   85.3935 N.am      7 SEC1        0.0000 
     27 O          38.2130   75.1400   87.7290 O.2       8 ALC2        0.0000 
     28 O          37.3335   77.2525   94.5650 O.2       8 ALC2        0.0000 
     29 CA         38.3630   72.6180   88.8055 C.3       9 GLC5        0.0000 
     30 CA         37.3775   77.7200   86.3975 C.3       9 GLC5        0.0000 
     31 CA         38.9700   78.8245   87.8705 C.3       9 GLC5        0.0000 
     32 CA         35.7090   77.6750   91.0465 C.3       9 GLC5        0.0000 
     33 CA         39.7070   79.0165   88.8500 C.3       9 GLC5        0.0000 
     34 CA         35.9730   77.7040   92.4000 C.3       9 GLC5        0.0000 
     35 CA         31.8428   75.6010   89.9135 C.3       9 GLC5        0.0000 
     36 CA         39.6197   80.1947   90.7705 C.3       9 GLC5        0.0000 
     37 CA         36.0015   78.8462   93.1743 C.3       9 GLC5        0.0000 
@<TRIPOS>BOND
@<TRIPOS>SUBSTRUCTURE
     1 SEL1        1 GROUP        1 Z    SEL  0     ROOT SEL Z 0
     2 ALL2        3 GROUP        1 Z    ALL  0     **** ALL Z 1
     3 GLL5        5 GROUP        1 Z    GLL  0     **** GLL Z 4
     4 SEP1       12 GROUP        1 Z    SEP  0     **** SEP Z 7
     5 ALP2       15 GROUP        1 Z    ALP  0     **** ALP Z 8
     6 GLP5       17 GROUP        1 Z    GLP  0     **** GLP Z 11
     7 SEC1       24 GROUP        1 Z    SEC  0     **** SEC Z 14
     8 ALC2       27 GROUP        1 Z    ALC  0     **** ALC Z 15
     9 GLC5       29 GROUP        1 Z    GLC  0     **** GLC Z 18
@<TRIPOS>SET

