1gmc_PRO_GLY_ALA_TYR_1_ligand
  -OEChem-08111718373D

 55 56  0     1  0  0  0  0  0999 V2000
   35.8296   76.8213   90.5970 H   0  0  0  0  0  0  0  0  0  0  0  0
   39.4572   78.6560   89.8985 H   0  0  0  0  0  0  0  0  0  0  0  0
   36.2694   76.8899   92.9519 H   0  0  0  0  0  0  0  0  0  0  0  0
   39.8828   78.7354   92.2099 H   0  0  0  0  0  0  0  0  0  0  0  0
   37.2578   76.9704   85.7986 H   0  0  0  0  0  0  0  0  0  0  0  0
   30.6888   74.5768   89.1936 H   0  0  0  0  0  0  0  0  0  0  0  0
   31.0062   73.1204   88.5266 H   0  0  0  0  0  0  0  0  0  0  0  0
   31.9986   74.1276   90.9567 H   0  0  0  0  0  0  0  0  0  0  0  0
   32.8660   73.6524   89.6572 H   0  0  0  0  0  0  0  0  0  0  0  0
   29.5655   73.6232   91.0068 H   0  0  0  0  0  0  0  0  0  0  0  0
   29.0558   72.6950   89.7636 H   0  0  0  0  0  0  0  0  0  0  0  0
   32.0848   71.4851   89.8078 H   0  0  0  0  0  0  0  0  0  0  0  0
   37.1379   72.6753   86.8479 H   0  0  0  0  0  0  0  0  0  0  0  0
   36.9976   71.3503   87.7919 H   0  0  0  0  0  0  0  0  0  0  0  0
   35.6635   72.1789   87.3444 H   0  0  0  0  0  0  0  0  0  0  0  0
   36.8486   78.7951   88.4562 H   0  0  0  0  0  0  0  0  0  0  0  0
   38.1829   77.9222   88.1039 H   0  0  0  0  0  0  0  0  0  0  0  0
   35.5461   71.1535   92.3696 H   0  0  0  0  0  0  0  0  0  0  0  0
   35.2598   72.5929   93.0856 H   0  0  0  0  0  0  0  0  0  0  0  0
   35.4925   76.9650   88.1964 H   0  0  0  0  0  0  0  0  0  0  0  0
   37.7140   73.2415   89.0943 H   0  0  0  0  0  0  0  0  0  0  0  0
   34.1722   72.8568   90.6030 H   0  0  0  0  0  0  0  0  0  0  0  0
   37.8713   75.2881   88.0186 H   0  0  0  0  0  0  0  0  0  0  0  0
   35.2729   71.8948   89.7254 H   0  0  0  0  0  0  0  0  0  0  0  0
   30.2870   71.7676   91.9363 H   0  0  0  0  0  0  0  0  0  0  0  0
   37.7651   77.6783   94.7636 H   0  0  0  0  0  0  0  0  0  0  0  0
   36.6760   77.2320   90.9360 C   0  0  0  0  0  0  0  0  0  0  0  0
   38.7760   78.2960   90.5360 C   0  0  0  0  0  0  0  0  0  0  0  0
   36.9300   77.2640   92.3010 C   0  0  0  0  0  0  0  0  0  0  0  0
   39.0310   78.3350   91.8720 C   0  0  0  0  0  0  0  0  0  0  0  0
   37.5940   77.7690   90.0370 C   0  0  0  0  0  0  0  0  0  0  0  0
   38.1220   77.8270   92.7440 C   0  0  0  0  0  0  0  0  0  0  0  0
   36.5060   77.2580   86.3920 C   0  0  0  0  0  0  0  0  0  0  0  0
   32.9320   71.7040   91.6610 C   0  0  0  0  0  0  0  0  0  0  0  0
   36.2640   72.7900   91.2290 C   0  0  0  0  0  0  0  0  0  0  0  0
   36.1070   74.5090   88.5920 C   0  0  0  0  0  0  0  0  0  0  0  0
   30.9060   73.6200   89.3870 C   0  0  1  0  0  0  0  0  0  0  0  0
   32.0250   73.5020   90.1770 C   0  0  2  0  0  0  0  0  0  0  0  0
   29.8500   72.9690   90.3060 C   0  0  1  0  0  0  0  0  0  0  0  0
   31.8760   72.0430   90.6110 C   0  0  2  0  0  0  0  0  0  0  0  0
   36.6270   72.2590   87.6000 C   0  0  0  0  0  0  0  0  0  0  0  0
   37.3020   77.9120   88.5770 C   0  0  1  0  0  0  0  0  0  0  0  0
   35.3140   72.1130   92.2100 C   0  0  1  0  0  0  0  0  0  0  0  0
   36.4360   76.8700   87.8790 C   0  0  2  0  0  0  0  0  0  0  0  0
   36.7520   73.1320   88.8440 C   0  0  2  0  0  0  0  0  0  0  0  0
   34.1100   72.2710   91.4110 N   0  0  0  0  0  0  0  0  0  0  0  0
   36.9030   75.4940   88.1600 N   0  0  0  0  0  0  0  0  0  0  0  0
   36.0110   72.5330   89.9440 N   0  0  0  0  0  0  0  0  0  0  0  0
   30.4450   71.7810   90.9490 N   0  3  2  0  0  0  0  0  0  0  0  0
   35.5530   77.9610   85.9760 O   0  0  0  0  0  0  0  0  0  0  0  0
   32.6720   70.9880   92.6380 O   0  0  0  0  0  0  0  0  0  0  0  0
   37.1760   73.5270   91.6030 O   0  0  0  0  0  0  0  0  0  0  0  0
   34.8960   74.6490   88.7900 O   0  0  0  0  0  0  0  0  0  0  0  0
   38.4180   77.9780   94.0680 O   0  0  0  0  0  0  0  0  0  0  0  0
   30.1125   70.9280   90.5466 H   0  0  0  0  0  0  0  0  0  0  0  0
  1 27  1  0  0  0  0
  2 28  1  0  0  0  0
  3 29  1  0  0  0  0
  4 30  1  0  0  0  0
  5 33  1  0  0  0  0
  6 37  1  0  0  0  0
  7 37  1  0  0  0  0
  8 38  1  0  0  0  0
  9 38  1  0  0  0  0
 10 39  1  0  0  0  0
 11 39  1  0  0  0  0
 12 40  1  0  0  0  0
 13 41  1  0  0  0  0
 14 41  1  0  0  0  0
 15 41  1  0  0  0  0
 16 42  1  0  0  0  0
 17 42  1  0  0  0  0
 18 43  1  0  0  0  0
 19 43  1  0  0  0  0
 20 44  1  0  0  0  0
 21 45  1  0  0  0  0
 22 46  1  0  0  0  0
 23 47  1  0  0  0  0
 24 48  1  0  0  0  0
 25 49  1  0  0  0  0
 26 54  1  0  0  0  0
 27 29  1  0  0  0  0
 27 31  2  0  0  0  0
 28 30  2  0  0  0  0
 28 31  1  0  0  0  0
 29 32  2  0  0  0  0
 30 32  1  0  0  0  0
 31 42  1  0  0  0  0
 32 54  1  0  0  0  0
 33 44  1  0  0  0  0
 33 50  2  0  0  0  0
 34 40  1  0  0  0  0
 34 46  1  0  0  0  0
 34 51  2  0  0  0  0
 35 43  1  0  0  0  0
 35 48  1  0  0  0  0
 35 52  2  0  0  0  0
 36 45  1  0  0  0  0
 36 47  1  0  0  0  0
 36 53  2  0  0  0  0
 37 38  1  0  0  0  0
 37 39  1  0  0  0  0
 38 40  1  0  0  0  0
 39 49  1  0  0  0  0
 40 49  1  0  0  0  0
 41 45  1  0  0  0  0
 42 44  1  0  0  0  0
 43 46  1  0  0  0  0
 44 47  1  0  0  0  0
 45 48  1  0  0  0  0
 49 55  1  0  0  0  0
M  CHG  1  49   1
M  END
> <scpdb_id>
1gmc_1

$$$$
