@<TRIPOS>MOLECULE
1gmc_PRO_GLY_ALA_TYR_1_ligand
   55    56     4     0     0
SMALL
NO_CHARGES


@<TRIPOS>ATOM
     1 N           30.4450    71.7810    90.9490 N.4          1 PRO501   1.0000
     2 CA          31.8760    72.0430    90.6110 C.3          1 PRO501   0.0000
     3 C           32.9320    71.7040    91.6610 C.2          1 PRO501   0.0000
     4 O           32.6720    70.9880    92.6380 O.2          1 PRO501   0.0000
     5 CB          32.0250    73.5020    90.1770 C.3          1 PRO501   0.0000
     6 CG          30.9060    73.6200    89.3870 C.3          1 PRO501   0.0000
     7 CD          29.8500    72.9690    90.3060 C.3          1 PRO501   0.0000
     8 H1          30.1125    70.9280    90.5466 H            1 PRO501   0.0000
     9 HA          32.0848    71.4851    89.8078 H            1 PRO501   0.0000
    10 HB1         31.9986    74.1276    90.9567 H            1 PRO501   0.0000
    11 HB2         32.8660    73.6524    89.6572 H            1 PRO501   0.0000
    12 HG1         30.6888    74.5768    89.1936 H            1 PRO501   0.0000
    13 HG2         31.0062    73.1204    88.5266 H            1 PRO501   0.0000
    14 HD1         29.5655    73.6232    91.0068 H            1 PRO501   0.0000
    15 HD2         29.0558    72.6950    89.7636 H            1 PRO501   0.0000
    16 N           34.1100    72.2710    91.4110 N.am         2 GLY502   0.0000
    17 CA          35.3140    72.1130    92.2100 C.3          2 GLY502   0.0000
    18 C           36.2640    72.7900    91.2290 C.2          2 GLY502   0.0000
    19 O           37.1760    73.5270    91.6030 O.2          2 GLY502   0.0000
    20 H9          34.1722    72.8568    90.6030 H            2 GLY502   0.0000
    21 HA1         35.5461    71.1535    92.3696 H            2 GLY502   0.0000
    22 HA2         35.2598    72.5929    93.0856 H            2 GLY502   0.0000
    23 N           36.0110    72.5330    89.9440 N.am         3 ALA503   0.0000
    24 CA          36.7520    73.1320    88.8440 C.3          3 ALA503   0.0000
    25 C           36.1070    74.5090    88.5920 C.2          3 ALA503   0.0000
    26 O           34.8960    74.6490    88.7900 O.2          3 ALA503   0.0000
    27 CB          36.6270    72.2590    87.6000 C.3          3 ALA503   0.0000
    28 H12         35.2729    71.8948    89.7254 H            3 ALA503   0.0000
    29 H13         37.7140    73.2415    89.0943 H            3 ALA503   0.0000
    30 H14         37.1379    72.6753    86.8479 H            3 ALA503   0.0000
    31 H15         36.9976    71.3503    87.7919 H            3 ALA503   0.0000
    32 HB3         35.6635    72.1789    87.3444 H            3 ALA503   0.0000
    33 N           36.9030    75.4940    88.1600 N.am         4 TYR504   0.0000
    34 CA          36.4360    76.8700    87.8790 C.3          4 TYR504   0.0000
    35 C           36.5060    77.2580    86.3920 C.2          4 TYR504   0.0000
    36 O           35.5530    77.9610    85.9760 O.2          4 TYR504   0.0000
    37 CB          37.3020    77.9120    88.5770 C.3          4 TYR504   0.0000
    38 CG          37.5940    77.7690    90.0370 C.ar         4 TYR504   0.0000
    39 CD1         36.6760    77.2320    90.9360 C.ar         4 TYR504   0.0000
    40 CD2         38.7760    78.2960    90.5360 C.ar         4 TYR504   0.0000
    41 CE1         36.9300    77.2640    92.3010 C.ar         4 TYR504   0.0000
    42 CE2         39.0310    78.3350    91.8720 C.ar         4 TYR504   0.0000
    43 CZ          38.1220    77.8270    92.7440 C.ar         4 TYR504   0.0000
    44 OH          38.4180    77.9780    94.0680 O.3          4 TYR504   0.0000
    45 H17         37.8713    75.2881    88.0186 H            4 TYR504   0.0000
    46 H18         35.4925    76.9650    88.1964 H            4 TYR504   0.0000
    47 H19         37.2578    76.9704    85.7986 H            4 TYR504   0.0000
    48 H20         36.8486    78.7951    88.4562 H            4 TYR504   0.0000
    49 H21         38.1829    77.9222    88.1039 H            4 TYR504   0.0000
    50 H22         35.8296    76.8213    90.5970 H            4 TYR504   0.0000
    51 H23         39.4572    78.6560    89.8985 H            4 TYR504   0.0000
    52 HE1         36.2694    76.8899    92.9519 H            4 TYR504   0.0000
    53 HE2         39.8828    78.7354    92.2099 H            4 TYR504   0.0000
    54 HH          37.7651    77.6783    94.7636 H            4 TYR504   0.0000
    55 H27         30.2870    71.7676    91.9363 H            4 TYR504   0.0000
@<TRIPOS>BOND
     1    1    7       1
     2    1    2       1
     3    7    6       1
     4    6    5       1
     5    5    2       1
     6    2    3       1
     7    3    4       2
     8    1    8       1
     9    2    9       1
    10    3   16      am
    11    5   10       1
    12    5   11       1
    13    6   12       1
    14    6   13       1
    15    7   14       1
    16    7   15       1
    17   16   17       1
    18   17   18       1
    19   18   19       2
    20   18   23      am
    21   16   20       1
    22   17   21       1
    23   17   22       1
    24   23   24       1
    25   24   27       1
    26   24   25       1
    27   25   26       2
    28   27   32       1
    29   23   28       1
    30   24   29       1
    31   25   33      am
    32   27   30       1
    33   27   31       1
    34   33   34       1
    35   34   37       1
    36   34   35       1
    37   37   38       1
    38   38   39      ar
    39   38   40      ar
    40   39   41      ar
    41   41   43      ar
    42   43   44       1
    43   43   42      ar
    44   42   40      ar
    45   35   36       2
    46   44   54       1
    47   33   45       1
    48   34   46       1
    49   35   47       1
    50   37   48       1
    51   37   49       1
    52   39   50       1
    53   40   51       1
    54   41   52       1
    55   42   53       1
    56    1   55       1
@<TRIPOS>SUBSTRUCTURE
     1 PRO501      1 RESIDUE           4 B     PRO     0 **** PRO B 501
     2 GLY502     16 RESIDUE           4 B     GLY     0 **** GLY B 502
     3 ALA503     23 RESIDUE           4 B     ALA     0 **** ALA B 503
     4 TYR504     33 RESIDUE           4 B     TYR     0 **** TYR B 504
