#    Name: 21928
#    Modification time : Tue Aug  8 21:10:11 2017

@<TRIPOS>MOLECULE
21928
   76     0    12     0     0
SMALL
NO_CHARGES


@<TRIPOS>ATOM
      1 N          29.2000   43.3140    5.1270 N.am      1 SEL1        0.0000 
      2 N          28.7140   45.3790    3.6340 N.am      1 SEL1        0.0000 
      3 N          31.0260   45.0740    4.7920 N.am      1 SEL1        0.0000 
      4 N          26.6650   46.1620    4.6980 N.am      1 SEL1        0.0000 
      5 N          26.7400   44.1610    6.3180 N.am      1 SEL1        0.0000 
      6 N          26.3910   46.5690    7.2310 N.am      1 SEL1        0.0000 
      7 NZ         29.2000   43.3140    5.1270 N.4       2 LYL3        0.0000 
      8 NZ         28.7140   45.3790    3.6340 N.4       2 LYL3        0.0000 
      9 NZ         31.0260   45.0740    4.7920 N.4       2 LYL3        0.0000 
     10 NZ         26.7400   44.1610    6.3180 N.4       2 LYL3        0.0000 
     11 NZ         26.3910   46.5690    7.2310 N.4       2 LYL3        0.0000 
     12 CA         38.1570   55.4840   12.3430 C.3       3 GLL5        0.0000 
     13 CA         37.1560   54.3620   12.0610 C.3       3 GLL5        0.0000 
     14 CA         34.0410   51.7240    8.8110 C.3       3 GLL5        0.0000 
     15 CA         37.8710   53.0570   11.7040 C.3       3 GLL5        0.0000 
     16 CA         32.9320   50.7280    8.4680 C.3       3 GLL5        0.0000 
     17 CA         30.8290   49.6100    9.2260 C.3       3 GLL5        0.0000 
     18 CA         28.3020   47.7460   10.9240 C.3       3 GLL5        0.0000 
     19 CA         27.5400   46.6110   10.6580 C.3       3 GLL5        0.0000 
     20 Zn         29.2000   43.3140    5.1270 Zn        4 ZIL7        0.0000 
     21 Zn         26.7400   44.1610    6.3180 Zn        4 ZIL7        0.0000 
     22 N          31.4330   42.0640    6.3890 N.am      5 SEP1        0.0000 
     23 N          28.3300   48.1260    3.1070 N.am      5 SEP1        0.0000 
     24 N          32.9350   43.2630    5.1420 N.am      5 SEP1        0.0000 
     25 N          26.3580   49.5710    4.4110 N.am      5 SEP1        0.0000 
     26 N          24.8190   44.9850    3.7010 N.am      5 SEP1        0.0000 
     27 N          24.0040   48.4740    7.4630 N.am      5 SEP1        0.0000 
     28 NZ         32.6370   42.1570    5.8160 N.4       6 LYP3        0.0000 
     29 NZ         24.8190   44.9850    3.7010 N.4       6 LYP3        0.0000 
     30 NZ         24.0040   48.4740    7.4630 N.4       6 LYP3        0.0000 
     31 CA         41.9330   55.8970   13.6530 C.3       7 GLP5        0.0000 
     32 CA         38.7500   56.3580   15.6130 C.3       7 GLP5        0.0000 
     33 CA         33.9360   56.4550   10.2420 C.3       7 GLP5        0.0000 
     34 CA         37.2800   56.0600   15.8290 C.3       7 GLP5        0.0000 
     35 CA         33.3280   51.0840    5.0050 C.3       7 GLP5        0.0000 
     36 CA         37.9370   57.7010    9.3560 C.3       7 GLP5        0.0000 
     37 CA         38.8610   51.4750   14.7400 C.3       7 GLP5        0.0000 
     38 CA         39.9970   50.7440    9.2420 C.3       7 GLP5        0.0000 
     39 CA         33.4070   54.9120    8.4530 C.3       7 GLP5        0.0000 
     40 CA         32.2090   54.5950    9.1170 C.3       7 GLP5        0.0000 
     41 CA         29.0620   52.6780    8.5980 C.3       7 GLP5        0.0000 
     42 CA         31.9780   51.2090    5.3040 C.3       7 GLP5        0.0000 
     43 CA         27.7560   48.2180   14.4490 C.3       7 GLP5        0.0000 
     44 CA         24.9080   48.9750   11.1380 C.3       7 GLP5        0.0000 
     45 Zn         27.4540   42.2250    5.7630 Zn        8 ZIP7        0.0000 
     46 Zn         25.2100   43.4660    7.7780 Zn        8 ZIP7        0.0000 
     47 N          30.3165   42.6890    5.7580 N.am      9 SEC1        0.0000 
     48 N          28.5220   46.7525    3.3705 N.am      9 SEC1        0.0000 
     49 N          31.9805   44.1685    4.9670 N.am      9 SEC1        0.0000 
     50 N          31.2295   43.5690    5.5905 N.am      9 SEC1        0.0000 
     51 N          27.4975   47.1440    3.9025 N.am      9 SEC1        0.0000 
     52 N          26.5115   47.8665    4.5545 N.am      9 SEC1        0.0000 
     53 N          25.7795   44.5730    5.0095 N.am      9 SEC1        0.0000 
     54 N          25.1975   47.5215    7.3470 N.am      9 SEC1        0.0000 
     55 NZ         30.9185   42.7355    5.4715 N.4      10 LYC3        0.0000 
     56 NZ         26.7665   45.1820    3.6675 N.4      10 LYC3        0.0000 
     57 NZ         31.8315   43.6155    5.3040 N.4      10 LYC3        0.0000 
     58 NZ         25.7795   44.5730    5.0095 N.4      10 LYC3        0.0000 
     59 NZ         25.1975   47.5215    7.3470 N.4      10 LYC3        0.0000 
     60 CA         40.0450   55.6905   12.9980 C.3      11 GLC5        0.0000 
     61 CA         38.4535   55.9210   13.9780 C.3      11 GLC5        0.0000 
     62 CA         35.5460   55.4085   11.1515 C.3      11 GLC5        0.0000 
     63 CA         37.2180   55.2110   13.9450 C.3      11 GLC5        0.0000 
     64 CA         33.6845   51.4040    6.9080 C.3      11 GLC5        0.0000 
     65 CA         37.7967   56.3120   10.7790 C.3      11 GLC5        0.0000 
     66 CA         38.0234   52.1501   13.2011 C.3      11 GLC5        0.0000 
     67 CA         38.3256   51.5805   10.0847 C.3      11 GLC5        0.0000 
     68 CA         34.0666   53.3380    8.9655 C.3      11 GLC5        0.0000 
     69 CA         32.3278   52.6183    9.0845 C.3      11 GLC5        0.0000 
     70 CA         30.3499   51.4019    8.8685 C.3      11 GLC5        0.0000 
     71 CA         31.8079   50.6674    7.2215 C.3      11 GLC5        0.0000 
     72 CA         27.8385   47.6983   12.6200 C.3      11 GLC5        0.0000 
     73 CA         26.4145   48.0768   10.9645 C.3      11 GLC5        0.0000 
     74 Zn         28.3270   42.7695    5.4450 Zn       12 ZIC7        0.0000 
     75 Zn         25.9750   43.8135    7.0480 Zn       12 ZIC7        0.0000 
     76 Zn         27.0970   43.1930    6.0405 Zn       12 ZIC7        0.0000 
@<TRIPOS>BOND
@<TRIPOS>SUBSTRUCTURE
     1 SEL1        1 GROUP        1 Z    SEL  0     ROOT SEL Z 0
     2 LYL3        7 GROUP        1 Z    LYL  0     **** LYL Z 2
     3 GLL5       12 GROUP        1 Z    GLL  0     **** GLL Z 4
     4 ZIL7       20 GROUP        1 Z    ZIL  0     **** ZIL Z 5
     5 SEP1       22 GROUP        1 Z    SEP  0     **** SEP Z 7
     6 LYP3       28 GROUP        1 Z    LYP  0     **** LYP Z 9
     7 GLP5       31 GROUP        1 Z    GLP  0     **** GLP Z 11
     8 ZIP7       45 GROUP        1 Z    ZIP  0     **** ZIP Z 12
     9 SEC1       47 GROUP        1 Z    SEC  0     **** SEC Z 14
    10 LYC3       55 GROUP        1 Z    LYC  0     **** LYC Z 16
    11 GLC5       60 GROUP        1 Z    GLC  0     **** GLC Z 18
    12 ZIC7       74 GROUP        1 Z    ZIC  0     **** ZIC Z 19
@<TRIPOS>SET

