2zev_B71_1_ligand
  -OEChem-08111718373D

 55 55  0     1  0  0  0  0  0999 V2000
   26.7629   46.3845   11.2452 H   0  0  0  0  0  0  0  0  0  0  0  0
   28.0688   48.3328   11.6994 H   0  0  0  0  0  0  0  0  0  0  0  0
   27.3041   44.9796    9.3920 H   0  0  0  0  0  0  0  0  0  0  0  0
   30.4842   47.4897    8.4474 H   0  0  0  0  0  0  0  0  0  0  0  0
   37.6623   56.3221   12.5728 H   0  0  0  0  0  0  0  0  0  0  0  0
   38.7437   55.2224   13.1094 H   0  0  0  0  0  0  0  0  0  0  0  0
   38.7193   55.6409   11.5311 H   0  0  0  0  0  0  0  0  0  0  0  0
   36.5703   54.6323   11.2969 H   0  0  0  0  0  0  0  0  0  0  0  0
   36.5946   54.2138   12.8752 H   0  0  0  0  0  0  0  0  0  0  0  0
   38.4651   52.7898   12.4627 H   0  0  0  0  0  0  0  0  0  0  0  0
   38.4230   53.1991   10.8824 H   0  0  0  0  0  0  0  0  0  0  0  0
   36.3072   51.7928   12.2634 H   0  0  0  0  0  0  0  0  0  0  0  0
   37.3444   51.0985   11.2103 H   0  0  0  0  0  0  0  0  0  0  0  0
   36.4996   52.4552    9.4593 H   0  0  0  0  0  0  0  0  0  0  0  0
   35.4902   53.1973   10.5067 H   0  0  0  0  0  0  0  0  0  0  0  0
   34.2919   51.1690   10.8108 H   0  0  0  0  0  0  0  0  0  0  0  0
   35.3192   50.3992    9.8015 H   0  0  0  0  0  0  0  0  0  0  0  0
   34.6413   51.8222    8.0173 H   0  0  0  0  0  0  0  0  0  0  0  0
   33.6244   52.6075    9.0252 H   0  0  0  0  0  0  0  0  0  0  0  0
   33.3442   49.8426    8.2530 H   0  0  0  0  0  0  0  0  0  0  0  0
   32.4279   51.0630    7.6720 H   0  0  0  0  0  0  0  0  0  0  0  0
   31.5782   51.4446    9.8853 H   0  0  0  0  0  0  0  0  0  0  0  0
   32.4483   50.1703   10.4199 H   0  0  0  0  0  0  0  0  0  0  0  0
   28.9281   44.3233    7.7804 H   0  0  0  0  0  0  0  0  0  0  0  0
   30.3407   45.1309    7.6429 H   0  0  0  0  0  0  0  0  0  0  0  0
   31.2078   48.8274    8.7320 H   0  0  0  0  0  0  0  0  0  0  0  0
   30.1837   50.0957    8.6364 H   0  0  0  0  0  0  0  0  0  0  0  0
   29.1781   46.7613    6.2513 H   0  0  0  0  0  0  0  0  0  0  0  0
   27.5400   46.6110   10.6580 C   0  0  0  0  0  0  0  0  0  0  0  0
   28.3020   47.7460   10.9240 C   0  0  0  0  0  0  0  0  0  0  0  0
   27.8540   45.7930    9.5820 C   0  0  0  0  0  0  0  0  0  0  0  0
   29.7080   47.2560    9.0330 C   0  0  0  0  0  0  0  0  0  0  0  0
   29.3850   48.0650   10.1150 C   0  0  0  0  0  0  0  0  0  0  0  0
   38.1570   55.4840   12.3430 C   0  0  0  0  0  0  0  0  0  0  0  0
   37.1560   54.3620   12.0610 C   0  0  2  0  0  0  0  0  0  0  0  0
   37.8710   53.0570   11.7040 C   0  0  2  0  0  0  0  0  0  0  0  0
   36.8580   51.9410   11.4420 C   0  0  2  0  0  0  0  0  0  0  0  0
   35.9440   52.3350   10.2820 C   0  0  2  0  0  0  0  0  0  0  0  0
   34.8790   51.2730   10.0080 C   0  0  2  0  0  0  0  0  0  0  0  0
   34.0410   51.7240    8.8110 C   0  0  2  0  0  0  0  0  0  0  0  0
   32.9320   50.7280    8.4680 C   0  0  2  0  0  0  0  0  0  0  0  0
   31.9610   50.5550    9.6360 C   0  0  2  0  0  0  0  0  0  0  0  0
   29.3450   45.2230    7.6510 C   0  0  1  0  0  0  0  0  0  0  0  0
   30.8290   49.6100    9.2260 C   0  0  2  0  0  0  0  0  0  0  0  0
   28.8800   45.8090    6.3160 C   0  0  1  0  0  0  0  0  0  0  0  0
   28.9450   46.1120    8.7630 N   0  3  0  0  0  0  0  0  0  0  0  0
   28.7140   45.3790    3.6340 O   0  5  0  0  0  0  0  0  0  0  0  0
   31.0260   45.0740    4.7920 O   0  5  0  0  0  0  0  0  0  0  0  0
   26.7400   44.1610    6.3180 O   0  5  0  0  0  0  0  0  0  0  0  0
   26.3910   46.5690    7.2310 O   0  5  0  0  0  0  0  0  0  0  0  0
   29.2000   43.3140    5.1270 O   0  0  0  0  0  0  0  0  0  0  0  0
   26.6650   46.1620    4.6980 O   0  0  0  0  0  0  0  0  0  0  0  0
   30.1530   49.1530   10.4050 O   0  0  0  0  0  0  0  0  0  0  0  0
   29.5650   44.8620    4.9030 P   0  0  0  0  0  0  0  0  0  0  0  0
   27.0520   45.7370    6.2010 P   0  0  0  0  0  0  0  0  0  0  0  0
  1 29  1  0  0  0  0
  2 30  1  0  0  0  0
  3 31  1  0  0  0  0
  4 32  1  0  0  0  0
  5 34  1  0  0  0  0
  6 34  1  0  0  0  0
  7 34  1  0  0  0  0
  8 35  1  0  0  0  0
  9 35  1  0  0  0  0
 10 36  1  0  0  0  0
 11 36  1  0  0  0  0
 12 37  1  0  0  0  0
 13 37  1  0  0  0  0
 14 38  1  0  0  0  0
 15 38  1  0  0  0  0
 16 39  1  0  0  0  0
 17 39  1  0  0  0  0
 18 40  1  0  0  0  0
 19 40  1  0  0  0  0
 20 41  1  0  0  0  0
 21 41  1  0  0  0  0
 22 42  1  0  0  0  0
 23 42  1  0  0  0  0
 24 43  1  0  0  0  0
 25 43  1  0  0  0  0
 26 44  1  0  0  0  0
 27 44  1  0  0  0  0
 28 45  1  0  0  0  0
 29 30  2  0  0  0  0
 29 31  1  0  0  0  0
 30 33  1  0  0  0  0
 31 46  2  0  0  0  0
 32 33  2  0  0  0  0
 32 46  1  0  0  0  0
 33 53  1  0  0  0  0
 34 35  1  0  0  0  0
 35 36  1  0  0  0  0
 36 37  1  0  0  0  0
 37 38  1  0  0  0  0
 38 39  1  0  0  0  0
 39 40  1  0  0  0  0
 40 41  1  0  0  0  0
 41 42  1  0  0  0  0
 42 44  1  0  0  0  0
 43 45  1  0  0  0  0
 43 46  1  0  0  0  0
 44 53  1  0  0  0  0
 45 54  1  0  0  0  0
 45 55  1  0  0  0  0
 47 54  1  0  0  0  0
 48 54  1  0  0  0  0
 49 55  1  0  0  0  0
 50 55  1  0  0  0  0
 51 54  2  0  0  0  0
 52 55  2  0  0  0  0
M  CHG  5  46   1  47  -1  48  -1  49  -1  50  -1
M  END
> <scpdb_id>
2zev_1

$$$$
