@<TRIPOS>MOLECULE
2zev_B71_1_ligand
   55    55     1     0     0
SMALL
NO_CHARGES


@<TRIPOS>ATOM
     1 CAA         38.1570    55.4840    12.3430 C.3          1 B711201   0.0000
     2 CAL         37.1560    54.3620    12.0610 C.3          1 B711201   0.0000
     3 CAM         37.8710    53.0570    11.7040 C.3          1 B711201   0.0000
     4 CAN         36.8580    51.9410    11.4420 C.3          1 B711201   0.0000
     5 CAO         35.9440    52.3350    10.2820 C.3          1 B711201   0.0000
     6 CAP         34.8790    51.2730    10.0080 C.3          1 B711201   0.0000
     7 CAQ         34.0410    51.7240     8.8110 C.3          1 B711201   0.0000
     8 CAR         32.9320    50.7280     8.4680 C.3          1 B711201   0.0000
     9 CAS         31.9610    50.5550     9.6360 C.3          1 B711201   0.0000
    10 CAT         30.8290    49.6100     9.2260 C.3          1 B711201   0.0000
    11 OAV         30.1530    49.1530    10.4050 O.3          1 B711201   0.0000
    12 CAW         29.3850    48.0650    10.1150 C.ar         1 B711201   0.0000
    13 CAK         29.7080    47.2560     9.0330 C.ar         1 B711201   0.0000
    14 CAI         28.3020    47.7460    10.9240 C.ar         1 B711201   0.0000
    15 CAH         27.5400    46.6110    10.6580 C.ar         1 B711201   0.0000
    16 CAJ         27.8540    45.7930     9.5820 C.ar         1 B711201   0.0000
    17 NAY         28.9450    46.1120     8.7630 N.ar         1 B711201   1.0000
    18 CAU         29.3450    45.2230     7.6510 C.3          1 B711201   0.0000
    19 CAX         28.8800    45.8090     6.3160 C.3          1 B711201   0.0000
    20 PBA         29.5650    44.8620     4.9030 P.3          1 B711201   0.0000
    21 OAF         29.2000    43.3140     5.1270 O.co2        1 B711201   0.0000
    22 OAG         28.7140    45.3790     3.6340 O.co2        1 B711201  -1.0000
    23 OAC         31.0260    45.0740     4.7920 O.co2        1 B711201  -1.0000
    24 PAZ         27.0520    45.7370     6.2010 P.3          1 B711201   0.0000
    25 OAD         26.6650    46.1620     4.6980 O.co2        1 B711201   0.0000
    26 OAE         26.7400    44.1610     6.3180 O.co2        1 B711201  -1.0000
    27 OAB         26.3910    46.5690     7.2310 O.co2        1 B711201  -1.0000
    28 HAA1        37.6623    56.3221    12.5728 H            1 B711201   0.0000
    29 HAA2        38.7437    55.2224    13.1094 H            1 B711201   0.0000
    30 HAA3        38.7193    55.6409    11.5311 H            1 B711201   0.0000
    31 HAL1        36.5703    54.6323    11.2969 H            1 B711201   0.0000
    32 HAL2        36.5946    54.2138    12.8752 H            1 B711201   0.0000
    33 HAM1        38.4651    52.7898    12.4627 H            1 B711201   0.0000
    34 HAM2        38.4230    53.1991    10.8824 H            1 B711201   0.0000
    35 HAN1        36.3072    51.7928    12.2634 H            1 B711201   0.0000
    36 HAN2        37.3444    51.0985    11.2103 H            1 B711201   0.0000
    37 HAO1        36.4996    52.4552     9.4593 H            1 B711201   0.0000
    38 HAO2        35.4902    53.1973    10.5067 H            1 B711201   0.0000
    39 HAP1        34.2919    51.1690    10.8108 H            1 B711201   0.0000
    40 HAP2        35.3192    50.3992     9.8015 H            1 B711201   0.0000
    41 HAQ1        34.6413    51.8222     8.0173 H            1 B711201   0.0000
    42 HAQ2        33.6244    52.6075     9.0252 H            1 B711201   0.0000
    43 HAR1        33.3442    49.8426     8.2530 H            1 B711201   0.0000
    44 HAR2        32.4279    51.0630     7.6720 H            1 B711201   0.0000
    45 HAS1        31.5782    51.4446     9.8853 H            1 B711201   0.0000
    46 HAS2        32.4483    50.1703    10.4199 H            1 B711201   0.0000
    47 HAT1        31.2078    48.8274     8.7320 H            1 B711201   0.0000
    48 HAT2        30.1837    50.0957     8.6364 H            1 B711201   0.0000
    49 HAK         30.4842    47.4897     8.4474 H            1 B711201   0.0000
    50 HAI         28.0688    48.3328    11.6994 H            1 B711201   0.0000
    51 HAH         26.7629    46.3845    11.2452 H            1 B711201   0.0000
    52 HAJ         27.3041    44.9796     9.3920 H            1 B711201   0.0000
    53 HAU1        28.9281    44.3233     7.7804 H            1 B711201   0.0000
    54 HAU2        30.3407    45.1309     7.6429 H            1 B711201   0.0000
    55 HAX         29.1781    46.7613     6.2513 H            1 B711201   0.0000
@<TRIPOS>BOND
     1    1    2       1
     2    2    3       1
     3    3    4       1
     4    4    5       1
     5    5    6       1
     6    6    7       1
     7    7    8       1
     8    8    9       1
     9    9   10       1
    10   10   11       1
    11   11   12       1
    12   12   13      ar
    13   12   14      ar
    14   13   17      ar
    15   14   15      ar
    16   15   16      ar
    17   16   17      ar
    18   17   18       1
    19   18   19       1
    20   19   20       1
    21   19   24       1
    22   20   21      ar
    23   20   22      ar
    24   20   23      ar
    25   24   25      ar
    26   24   26      ar
    27   24   27      ar
    28    1   28       1
    29    1   29       1
    30    1   30       1
    31    2   31       1
    32    2   32       1
    33    3   33       1
    34    3   34       1
    35    4   35       1
    36    4   36       1
    37    5   37       1
    38    5   38       1
    39    6   39       1
    40    6   40       1
    41    7   41       1
    42    7   42       1
    43    8   43       1
    44    8   44       1
    45    9   45       1
    46    9   46       1
    47   10   47       1
    48   10   48       1
    49   13   49       1
    50   14   50       1
    51   15   51       1
    52   16   52       1
    53   18   53       1
    54   18   54       1
    55   19   55       1
@<TRIPOS>SUBSTRUCTURE
     1 B711201     1 GROUP             4 A     B71     0 **** B71 A1201
