#    Name: 38770
#    Modification time : Tue Aug  8 23:59:14 2017

@<TRIPOS>MOLECULE
38770
   59     0    12     0     0
SMALL
NO_CHARGES


@<TRIPOS>ATOM
      1 N          16.8930  -12.8090   22.5600 N.am      1 SEL1        0.0000 
      2 N          14.5300  -16.5920   22.9810 N.am      1 SEL1        0.0000 
      3 O          17.0340  -15.4950   22.9870 O.2       2 ALL2        0.0000 
      4 O          16.1760  -10.8150   20.0040 O.2       2 ALL2        0.0000 
      5 O          10.8890   -9.5960   24.4700 O.2       2 ALL2        0.0000 
      6 O          10.3990  -11.8540   24.2650 O.2       2 ALL2        0.0000 
      7 OD1        11.1190  -10.7320   23.8780 O.co2     3 ASL4        0.0000 
      8 CA         18.8170  -14.4230   24.3390 C.3       4 GLL5        0.0000 
      9 CA         19.5190  -15.4480   26.5040 C.3       4 GLL5        0.0000 
     10 CA         20.8090  -14.6100   26.5010 C.3       4 GLL5        0.0000 
     11 CA         20.1140  -13.5790   24.3180 C.3       4 GLL5        0.0000 
     12 CA         12.5810  -12.0810   22.3580 C.3       4 GLL5        0.0000 
     13 CA         12.4940   -9.6610   22.0740 C.3       4 GLL5        0.0000 
     14 CA         19.6700  -12.0180   19.5700 C.3       4 GLL5        0.0000 
     15 CA         20.6120  -13.2860   25.7470 C.3       4 GLL5        0.0000 
     16 N          14.9030  -11.6870   24.9540 N.am      5 SEP1        0.0000 
     17 N          12.0940  -16.8720   24.5280 N.am      5 SEP1        0.0000 
     18 O          15.1590  -14.2970   24.8680 O.2       6 ALP2        0.0000 
     19 O          17.1170   -8.4130   22.0490 O.2       6 ALP2        0.0000 
     20 O           8.3110   -9.3270   25.6190 O.2       6 ALP2        0.0000 
     21 O          10.7330  -14.6920   23.9200 O.2       6 ALP2        0.0000 
     22 O           8.1390  -11.5380   25.6910 O.2       6 ALP2        0.0000 
     23 OD1         8.1390  -11.5380   25.6910 O.co2     7 ASP4        0.0000 
     24 OD1         8.3110   -9.3270   25.6190 O.co2     7 ASP4        0.0000 
     25 CA         17.3140  -12.1540   27.3850 C.3       8 GLP5        0.0000 
     26 CA         20.0350  -15.4940   30.0750 C.3       8 GLP5        0.0000 
     27 CA         21.1990  -16.5550   29.6510 C.3       8 GLP5        0.0000 
     28 CA         20.7980   -9.8060   22.6260 C.3       8 GLP5        0.0000 
     29 CA         17.5370  -10.4540   24.5320 C.3       8 GLP5        0.0000 
     30 CA          9.0680  -14.0290   21.1440 C.3       8 GLP5        0.0000 
     31 CA          9.3120   -7.1090   22.1450 C.3       8 GLP5        0.0000 
     32 CA         21.8500   -8.2810   18.7040 C.3       8 GLP5        0.0000 
     33 CA         22.7680  -14.1230   18.4560 C.3       8 GLP5        0.0000 
     34 CA         18.3060  -14.7440   17.4990 C.3       8 GLP5        0.0000 
     35 CA         15.6190  -16.4100   27.7650 C.3       8 GLP5        0.0000 
     36 CA         12.5130   -5.9270   21.2410 C.3       8 GLP5        0.0000 
     37 N          15.8980  -12.2480   23.7570 N.am      9 SEC1        0.0000 
     38 N          13.3120  -16.7320   23.7545 N.am      9 SEC1        0.0000 
     39 O          16.0965  -14.8960   23.9275 O.2      10 ALC2        0.0000 
     40 O          16.6465   -9.6140   21.0265 O.2      10 ALC2        0.0000 
     41 O           9.6000   -9.4615   25.0445 O.2      10 ALC2        0.0000 
     42 O          10.5660  -13.2730   24.0925 O.2      10 ALC2        0.0000 
     43 O           9.2690  -11.6960   24.9780 O.2      10 ALC2        0.0000 
     44 OD1         9.6290  -11.1350   24.7845 O.co2    11 ASC4        0.0000 
     45 OD1         9.7150  -10.0295   24.7485 O.co2    11 ASC4        0.0000 
     46 CA         18.0655  -13.2885   25.8620 C.3      12 GLC5        0.0000 
     47 CA         19.7770  -15.4710   28.2895 C.3      12 GLC5        0.0000 
     48 CA         21.0040  -15.5825   28.0760 C.3      12 GLC5        0.0000 
     49 CA         20.4560  -11.6925   23.4720 C.3      12 GLC5        0.0000 
     50 CA         18.8255  -12.0165   24.4250 C.3      12 GLC5        0.0000 
     51 CA         10.8245  -13.0550   21.7510 C.3      12 GLC5        0.0000 
     52 CA         10.9030   -8.3850   22.1095 C.3      12 GLC5        0.0000 
     53 CA         20.7600  -10.1495   19.1370 C.3      12 GLC5        0.0000 
     54 CA         21.2190  -13.0705   19.0130 C.3      12 GLC5        0.0000 
     55 CA         18.9880  -13.3810   18.5345 C.3      12 GLC5        0.0000 
     56 CA         20.2340  -10.9120   21.0980 C.3      12 GLC5        0.0000 
     57 CA         17.4525  -16.0053   26.7765 C.3      12 GLC5        0.0000 
     58 CA         18.8510  -13.1557   26.7549 C.3      12 GLC5        0.0000 
     59 CA         12.7275   -7.8210   21.3967 C.3      12 GLC5        0.0000 
@<TRIPOS>BOND
@<TRIPOS>SUBSTRUCTURE
     1 SEL1        1 GROUP        1 Z    SEL  0     ROOT SEL Z 0
     2 ALL2        3 GROUP        1 Z    ALL  0     **** ALL Z 1
     3 ASL4        7 GROUP        1 Z    ASL  0     **** ASL Z 3
     4 GLL5        8 GROUP        1 Z    GLL  0     **** GLL Z 4
     5 SEP1       16 GROUP        1 Z    SEP  0     **** SEP Z 7
     6 ALP2       18 GROUP        1 Z    ALP  0     **** ALP Z 8
     7 ASP4       23 GROUP        1 Z    ASP  0     **** ASP Z 10
     8 GLP5       25 GROUP        1 Z    GLP  0     **** GLP Z 11
     9 SEC1       37 GROUP        1 Z    SEC  0     **** SEC Z 14
    10 ALC2       39 GROUP        1 Z    ALC  0     **** ALC Z 15
    11 ASC4       44 GROUP        1 Z    ASC  0     **** ASC Z 17
    12 GLC5       46 GROUP        1 Z    GLC  0     **** GLC Z 18
@<TRIPOS>SET

