@<TRIPOS>MOLECULE
4bah_MEL_1_ligand
   63    65     1     0     0
SMALL
NO_CHARGES


@<TRIPOS>ATOM
     1 C1          18.8170   -14.4230    24.3390 C.3          1 MEL1291   0.0000
     2 C2          19.0530   -15.7530    25.0720 C.3          1 MEL1291   0.0000
     3 C3          19.5190   -15.4480    26.5040 C.3          1 MEL1291   0.0000
     4 C4          20.8090   -14.6100    26.5010 C.3          1 MEL1291   0.0000
     5 C5          20.6120   -13.2860    25.7470 C.3          1 MEL1291   0.0000
     6 C6          20.1140   -13.5790    24.3180 C.3          1 MEL1291   0.0000
     7 N7          17.0340   -15.4950    22.9870 N.4          1 MEL1291   1.0000
     8 C8          18.2790   -14.6860    22.9180 C.3          1 MEL1291   0.0000
     9 C9          17.9420   -13.3730    22.2630 C.2          1 MEL1291   0.0000
    10 O0          16.8930   -12.8090    22.5600 O.2          1 MEL1291   0.0000
    11 N11         18.7350   -12.7990    21.3370 N.am         1 MEL1291   0.0000
    12 C12         18.5020   -11.6230    20.4940 C.3          1 MEL1291   0.0000
    13 C13         17.1070   -11.7900    19.9020 C.2          1 MEL1291   0.0000
    14 O14         16.7900   -12.8720    19.4230 O.2          1 MEL1291   0.0000
    15 N15         16.1760   -10.8150    20.0040 N.am         1 MEL1291   0.0000
    16 C16         14.8250   -11.0780    19.4730 C.3          1 MEL1291   0.0000
    17 C17         13.8440   -11.0140    20.6130 C.ar         1 MEL1291   0.0000
    18 C18         13.4640   -12.1670    21.2840 C.ar         1 MEL1291   0.0000
    19 C19         12.5810   -12.0810    22.3580 C.ar         1 MEL1291   0.0000
    20 C20         12.0990   -10.8210    22.7640 C.ar         1 MEL1291   0.0000
    21 C21         12.4940    -9.6610    22.0740 C.ar         1 MEL1291   0.0000
    22 C22         13.3900    -9.7690    21.0310 C.ar         1 MEL1291   0.0000
    23 C23         11.1190   -10.7320    23.8780 C.cat        1 MEL1291   0.0000
    24 N24         10.8890    -9.5960    24.4700 N.pl3        1 MEL1291   1.0000
    25 N25         10.3990   -11.8540    24.2650 N.pl3        1 MEL1291   0.0000
    26 C26         19.6700   -12.0180    19.5700 C.3          1 MEL1291   0.0000
    27 C27         19.9900   -13.0980    20.6110 C.3          1 MEL1291   0.0000
    28 C28         16.3970   -15.8260    21.6860 C.3          1 MEL1291   0.0000
    29 C29         14.9890   -16.3550    21.8810 C.2          1 MEL1291   0.0000
    30 O30         14.5300   -16.5920    22.9810 O.co2        1 MEL1291   0.0000
    31 O31         14.2300   -16.5970    20.8100 O.co2        1 MEL1291  -1.0000
    32 H1          18.1221   -13.9105    24.8433 H            1 MEL1291   0.0000
    33 H2          19.7554   -16.2808    24.5944 H            1 MEL1291   0.0000
    34 H3          18.2024   -16.2781    25.0992 H            1 MEL1291   0.0000
    35 H4          19.6905   -16.3095    26.9819 H            1 MEL1291   0.0000
    36 H5          18.8009   -14.9401    26.9798 H            1 MEL1291   0.0000
    37 H6          21.5363   -15.1330    26.0566 H            1 MEL1291   0.0000
    38 H7          21.0707   -14.4113    27.4455 H            1 MEL1291   0.0000
    39 H8          21.4819   -12.7947    25.7029 H            1 MEL1291   0.0000
    40 H9          19.9369   -12.7260    26.2272 H            1 MEL1291   0.0000
    41 H10         19.9321   -12.7131    23.8521 H            1 MEL1291   0.0000
    42 H11         20.8223   -14.0818    23.8225 H            1 MEL1291   0.0000
    43 H12         16.3684   -14.9856    23.5323 H            1 MEL1291   0.0000
    44 H13         18.9683   -15.1684    22.3775 H            1 MEL1291   0.0000
    45 H14         18.6382   -10.7530    20.9678 H            1 MEL1291   0.0000
    46 H15         16.3977    -9.9373    20.4289 H            1 MEL1291   0.0000
    47 H16         14.7976   -11.9859    19.0548 H            1 MEL1291   0.0000
    48 H17         14.5915   -10.3882    18.7877 H            1 MEL1291   0.0000
    49 H18         13.8222   -13.0558    20.9981 H            1 MEL1291   0.0000
    50 H19         12.2909   -12.9089    22.8380 H            1 MEL1291   0.0000
    51 H20         12.1293    -8.7677    22.3367 H            1 MEL1291   0.0000
    52 H21         13.7161    -8.9431    20.5710 H            1 MEL1291   0.0000
    53 H22         10.2276    -9.5471    25.2185 H            1 MEL1291   0.0000
    54 H23         11.3736    -8.7720    24.1764 H            1 MEL1291   0.0000
    55 H24          9.7403   -11.7913    25.0148 H            1 MEL1291   0.0000
    56 H25         20.3750   -11.3177    19.4581 H            1 MEL1291   0.0000
    57 H26         19.3990   -12.3646    18.6720 H            1 MEL1291   0.0000
    58 H27         20.0303   -14.0239    20.2354 H            1 MEL1291   0.0000
    59 H28         20.8182   -12.9171    21.1414 H            1 MEL1291   0.0000
    60 H29         16.9453   -16.5221    21.2225 H            1 MEL1291   0.0000
    61 H30         16.3599   -15.0010    21.1221 H            1 MEL1291   0.0000
    62 H31         17.2536   -16.3552    23.4473 H            1 MEL1291   0.0000
    63 H32         10.5390   -12.7249    23.7940 H            1 MEL1291   0.0000
@<TRIPOS>BOND
     1    1    2       1
     2    1    6       1
     3    1    8       1
     4    2    3       1
     5    3    4       1
     6    4    5       1
     7    5    6       1
     8    7    8       1
     9    7   28       1
    10    8    9       1
    11    9   10       2
    12    9   11      am
    13   11   12       1
    14   11   27       1
    15   12   13       1
    16   12   26       1
    17   13   14       2
    18   13   15      am
    19   15   16       1
    20   16   17       1
    21   17   18      ar
    22   17   22      ar
    23   18   19      ar
    24   19   20      ar
    25   20   21      ar
    26   20   23       1
    27   21   22      ar
    28   23   24      ar
    29   23   25      ar
    30   26   27       1
    31   28   29       1
    32   29   30      ar
    33   29   31      ar
    34    1   32       1
    35    2   33       1
    36    2   34       1
    37    3   35       1
    38    3   36       1
    39    4   37       1
    40    4   38       1
    41    5   39       1
    42    5   40       1
    43    6   41       1
    44    6   42       1
    45    7   43       1
    46    8   44       1
    47   12   45       1
    48   15   46       1
    49   16   47       1
    50   16   48       1
    51   18   49       1
    52   19   50       1
    53   21   51       1
    54   22   52       1
    55   24   53       1
    56   24   54       1
    57   25   55       1
    58   26   56       1
    59   26   57       1
    60   27   58       1
    61   27   59       1
    62   28   60       1
    63   28   61       1
    64   25   63       1
    65    7   62       1
@<TRIPOS>SUBSTRUCTURE
     1 MEL1291     1 GROUP             4 B     MEL     0 **** MEL B1291
