4bah_MEL_1_ligand
  -OEChem-08111718373D

 63 65  0     1  0  0  0  0  0999 V2000
   12.2909  -12.9089   22.8380 H   0  0  0  0  0  0  0  0  0  0  0  0
   12.1293   -8.7677   22.3367 H   0  0  0  0  0  0  0  0  0  0  0  0
   13.8222  -13.0558   20.9981 H   0  0  0  0  0  0  0  0  0  0  0  0
   13.7161   -8.9431   20.5710 H   0  0  0  0  0  0  0  0  0  0  0  0
   21.5363  -15.1330   26.0566 H   0  0  0  0  0  0  0  0  0  0  0  0
   21.0707  -14.4113   27.4455 H   0  0  0  0  0  0  0  0  0  0  0  0
   19.6905  -16.3095   26.9819 H   0  0  0  0  0  0  0  0  0  0  0  0
   18.8009  -14.9401   26.9798 H   0  0  0  0  0  0  0  0  0  0  0  0
   21.4819  -12.7947   25.7029 H   0  0  0  0  0  0  0  0  0  0  0  0
   19.9369  -12.7260   26.2272 H   0  0  0  0  0  0  0  0  0  0  0  0
   19.7554  -16.2808   24.5944 H   0  0  0  0  0  0  0  0  0  0  0  0
   18.2024  -16.2781   25.0992 H   0  0  0  0  0  0  0  0  0  0  0  0
   19.9321  -12.7131   23.8521 H   0  0  0  0  0  0  0  0  0  0  0  0
   20.8223  -14.0818   23.8225 H   0  0  0  0  0  0  0  0  0  0  0  0
   20.3750  -11.3177   19.4581 H   0  0  0  0  0  0  0  0  0  0  0  0
   19.3990  -12.3646   18.6720 H   0  0  0  0  0  0  0  0  0  0  0  0
   20.0303  -14.0239   20.2354 H   0  0  0  0  0  0  0  0  0  0  0  0
   20.8182  -12.9171   21.1414 H   0  0  0  0  0  0  0  0  0  0  0  0
   18.6382  -10.7530   20.9678 H   0  0  0  0  0  0  0  0  0  0  0  0
   18.1221  -13.9105   24.8433 H   0  0  0  0  0  0  0  0  0  0  0  0
   14.7976  -11.9859   19.0548 H   0  0  0  0  0  0  0  0  0  0  0  0
   14.5915  -10.3882   18.7877 H   0  0  0  0  0  0  0  0  0  0  0  0
   16.9453  -16.5221   21.2225 H   0  0  0  0  0  0  0  0  0  0  0  0
   16.3599  -15.0010   21.1221 H   0  0  0  0  0  0  0  0  0  0  0  0
   18.9683  -15.1684   22.3775 H   0  0  0  0  0  0  0  0  0  0  0  0
    9.7403  -11.7913   25.0148 H   0  0  0  0  0  0  0  0  0  0  0  0
   10.5390  -12.7249   23.7940 H   0  0  0  0  0  0  0  0  0  0  0  0
   16.3977   -9.9373   20.4289 H   0  0  0  0  0  0  0  0  0  0  0  0
   10.2010   -9.5395   25.1935 H   0  0  0  0  0  0  0  0  0  0  0  0
   16.3684  -14.9856   23.5323 H   0  0  0  0  0  0  0  0  0  0  0  0
   12.5810  -12.0810   22.3580 C   0  0  0  0  0  0  0  0  0  0  0  0
   12.4940   -9.6610   22.0740 C   0  0  0  0  0  0  0  0  0  0  0  0
   13.4640  -12.1670   21.2840 C   0  0  0  0  0  0  0  0  0  0  0  0
   13.3900   -9.7690   21.0310 C   0  0  0  0  0  0  0  0  0  0  0  0
   12.0990  -10.8210   22.7640 C   0  0  0  0  0  0  0  0  0  0  0  0
   13.8440  -11.0140   20.6130 C   0  0  0  0  0  0  0  0  0  0  0  0
   11.1190  -10.7320   23.8780 C   0  0  0  0  0  0  0  0  0  0  0  0
   17.1070  -11.7900   19.9020 C   0  0  0  0  0  0  0  0  0  0  0  0
   17.9420  -13.3730   22.2630 C   0  0  0  0  0  0  0  0  0  0  0  0
   14.9890  -16.3550   21.8810 C   0  0  0  0  0  0  0  0  0  0  0  0
   20.8090  -14.6100   26.5010 C   0  0  2  0  0  0  0  0  0  0  0  0
   19.5190  -15.4480   26.5040 C   0  0  1  0  0  0  0  0  0  0  0  0
   20.6120  -13.2860   25.7470 C   0  0  2  0  0  0  0  0  0  0  0  0
   19.0530  -15.7530   25.0720 C   0  0  1  0  0  0  0  0  0  0  0  0
   20.1140  -13.5790   24.3180 C   0  0  1  0  0  0  0  0  0  0  0  0
   19.6700  -12.0180   19.5700 C   0  0  1  0  0  0  0  0  0  0  0  0
   19.9900  -13.0980   20.6110 C   0  0  1  0  0  0  0  0  0  0  0  0
   18.5020  -11.6230   20.4940 C   0  0  2  0  0  0  0  0  0  0  0  0
   18.8170  -14.4230   24.3390 C   0  0  1  0  0  0  0  0  0  0  0  0
   14.8250  -11.0780   19.4730 C   0  0  1  0  0  0  0  0  0  0  0  0
   16.3970  -15.8260   21.6860 C   0  0  1  0  0  0  0  0  0  0  0  0
   18.2790  -14.6860   22.9180 C   0  0  1  0  0  0  0  0  0  0  0  0
   18.7350  -12.7990   21.3370 N   0  0  0  0  0  0  0  0  0  0  0  0
   10.3990  -11.8540   24.2650 N   0  0  0  0  0  0  0  0  0  0  0  0
   16.1760  -10.8150   20.0040 N   0  0  0  0  0  0  0  0  0  0  0  0
   10.8890   -9.5960   24.4700 N   0  3  0  0  0  0  0  0  0  0  0  0
   17.0340  -15.4950   22.9870 N   0  3  1  0  0  0  0  0  0  0  0  0
   14.2300  -16.5970   20.8100 O   0  5  0  0  0  0  0  0  0  0  0  0
   16.7900  -12.8720   19.4230 O   0  0  0  0  0  0  0  0  0  0  0  0
   16.8930  -12.8090   22.5600 O   0  0  0  0  0  0  0  0  0  0  0  0
   14.5300  -16.5920   22.9810 O   0  0  0  0  0  0  0  0  0  0  0  0
   11.4003   -8.7796   24.2013 H   0  0  0  0  0  0  0  0  0  0  0  0
   17.2536  -16.3552   23.4473 H   0  0  0  0  0  0  0  0  0  0  0  0
  1 31  1  0  0  0  0
  2 32  1  0  0  0  0
  3 33  1  0  0  0  0
  4 34  1  0  0  0  0
  5 41  1  0  0  0  0
  6 41  1  0  0  0  0
  7 42  1  0  0  0  0
  8 42  1  0  0  0  0
  9 43  1  0  0  0  0
 10 43  1  0  0  0  0
 11 44  1  0  0  0  0
 12 44  1  0  0  0  0
 13 45  1  0  0  0  0
 14 45  1  0  0  0  0
 15 46  1  0  0  0  0
 16 46  1  0  0  0  0
 17 47  1  0  0  0  0
 18 47  1  0  0  0  0
 19 48  1  0  0  0  0
 20 49  1  0  0  0  0
 21 50  1  0  0  0  0
 22 50  1  0  0  0  0
 23 51  1  0  0  0  0
 24 51  1  0  0  0  0
 25 52  1  0  0  0  0
 26 54  1  0  0  0  0
 27 54  1  0  0  0  0
 28 55  1  0  0  0  0
 29 56  1  0  0  0  0
 30 57  1  0  0  0  0
 31 33  1  0  0  0  0
 31 35  2  0  0  0  0
 32 34  2  0  0  0  0
 32 35  1  0  0  0  0
 33 36  2  0  0  0  0
 34 36  1  0  0  0  0
 35 37  1  0  0  0  0
 36 50  1  0  0  0  0
 37 54  1  0  0  0  0
 37 56  2  0  0  0  0
 38 48  1  0  0  0  0
 38 55  1  0  0  0  0
 38 59  2  0  0  0  0
 39 52  1  0  0  0  0
 39 53  1  0  0  0  0
 39 60  2  0  0  0  0
 40 51  1  0  0  0  0
 40 58  1  0  0  0  0
 40 61  2  0  0  0  0
 41 42  1  0  0  0  0
 41 43  1  0  0  0  0
 42 44  1  0  0  0  0
 43 45  1  0  0  0  0
 44 49  1  0  0  0  0
 45 49  1  0  0  0  0
 46 47  1  0  0  0  0
 46 48  1  0  0  0  0
 47 53  1  0  0  0  0
 48 53  1  0  0  0  0
 49 52  1  0  0  0  0
 50 55  1  0  0  0  0
 51 57  1  0  0  0  0
 52 57  1  0  0  0  0
 56 62  1  0  0  0  0
 57 63  1  0  0  0  0
M  CHG  3  57   1  56   1  58  -1
M  END
> <scpdb_id>
4bah_1

$$$$
