#    Name: 14410
#    Modification time : Tue Aug  8 20:57:54 2017

@<TRIPOS>MOLECULE
14410
   41     0     9     0     0
SMALL
NO_CHARGES


@<TRIPOS>ATOM
      1 N          26.6490   25.1390   29.5570 N.am      1 SEL1        0.0000 
      2 N          27.0350   24.0340   31.7870 N.am      1 SEL1        0.0000 
      3 N          25.8050   26.2010   31.5520 N.am      1 SEL1        0.0000 
      4 N          21.2380   22.5160   33.3440 N.am      1 SEL1        0.0000 
      5 N          18.7680   21.8960   34.9280 N.am      1 SEL1        0.0000 
      6 O          22.0230   24.5210   26.9110 O.2       2 ALL2        0.0000 
      7 O          17.6320   21.4210   32.9910 O.2       2 ALL2        0.0000 
      8 O          16.4870   20.9330   30.9450 O.2       2 ALL2        0.0000 
      9 CA         23.6370   24.6480   30.1600 C.3       3 GLL5        0.0000 
     10 CA         21.4280   22.2780   29.6050 C.3       3 GLL5        0.0000 
     11 CA         20.7930   23.2930   28.6830 C.3       3 GLL5        0.0000 
     12 N          26.3660   22.4930   28.3110 N.am      4 SEP1        0.0000 
     13 N          26.9820   25.3410   34.4530 N.am      4 SEP1        0.0000 
     14 N          29.2540   26.2710   30.4470 N.am      4 SEP1        0.0000 
     15 N          24.1900   26.5970   33.8090 N.am      4 SEP1        0.0000 
     16 N          28.1870   27.1220   32.7970 N.am      4 SEP1        0.0000 
     17 N          21.6290   22.6090   35.9860 N.am      4 SEP1        0.0000 
     18 N          16.9490   20.3470   36.6040 N.am      4 SEP1        0.0000 
     19 O          22.4030   27.4340   26.6300 O.2       5 ALP2        0.0000 
     20 O          15.4800   20.7630   34.2720 O.2       5 ALP2        0.0000 
     21 O          13.7470   20.1320   30.6040 O.2       5 ALP2        0.0000 
     22 CA         25.1080   20.8420   31.9930 C.3       6 GLP5        0.0000 
     23 CA         19.5460   25.7500   31.4780 C.3       6 GLP5        0.0000 
     24 CA         24.4100   24.2420   34.4850 C.3       6 GLP5        0.0000 
     25 CA         20.7280   18.6450   31.3950 C.3       6 GLP5        0.0000 
     26 N          26.5075   23.8160   28.9340 N.am      7 SEC1        0.0000 
     27 N          27.0085   24.6875   33.1200 N.am      7 SEC1        0.0000 
     28 N          28.1445   25.1525   31.1170 N.am      7 SEC1        0.0000 
     29 N          24.9975   26.3990   32.6805 N.am      7 SEC1        0.0000 
     30 N          26.9960   26.6615   32.1745 N.am      7 SEC1        0.0000 
     31 N          21.4335   22.5625   34.6650 N.am      7 SEC1        0.0000 
     32 N          17.8585   21.1215   35.7660 N.am      7 SEC1        0.0000 
     33 O          22.2130   25.9775   26.7705 O.2       8 ALC2        0.0000 
     34 O          16.5560   21.0920   33.6315 O.2       8 ALC2        0.0000 
     35 O          15.9835   20.8480   32.6085 O.2       8 ALC2        0.0000 
     36 O          15.1170   20.5325   30.7745 O.2       8 ALC2        0.0000 
     37 CA         24.3725   22.7450   31.0765 C.3       9 GLC5        0.0000 
     38 CA         21.5915   25.1990   30.8190 C.3       9 GLC5        0.0000 
     39 CA         24.0235   24.4450   32.3225 C.3       9 GLC5        0.0000 
     40 CA         21.0780   20.4615   30.5000 C.3       9 GLC5        0.0000 
     41 CA         20.4550   24.4006   30.2719 C.3       9 GLC5        0.0000 
@<TRIPOS>BOND
@<TRIPOS>SUBSTRUCTURE
     1 SEL1        1 GROUP        1 Z    SEL  0     ROOT SEL Z 0
     2 ALL2        6 GROUP        1 Z    ALL  0     **** ALL Z 1
     3 GLL5        9 GROUP        1 Z    GLL  0     **** GLL Z 4
     4 SEP1       12 GROUP        1 Z    SEP  0     **** SEP Z 7
     5 ALP2       19 GROUP        1 Z    ALP  0     **** ALP Z 8
     6 GLP5       22 GROUP        1 Z    GLP  0     **** GLP Z 11
     7 SEC1       26 GROUP        1 Z    SEC  0     **** SEC Z 14
     8 ALC2       33 GROUP        1 Z    ALC  0     **** ALC Z 15
     9 GLC5       37 GROUP        1 Z    GLC  0     **** GLC Z 18
@<TRIPOS>SET

