@<TRIPOS>MOLECULE
2fxv_5GP_2_ligand
   36    38     1     0     0
SMALL
NO_CHARGES


@<TRIPOS>ATOM
     1 P           26.0960    24.8690    31.0000 P.3          1 5GP201   0.0000
     2 O1P         26.6490    25.1390    29.5570 O.co2        1 5GP201   0.0000
     3 O2P         27.0350    24.0340    31.7870 O.co2        1 5GP201  -1.0000
     4 O3P         25.8050    26.2010    31.5520 O.co2        1 5GP201  -1.0000
     5 O5'         24.7590    24.1290    30.8270 O.3          1 5GP201   0.0000
     6 C5'         23.6370    24.6480    30.1600 C.3          1 5GP201   0.0000
     7 C4'         23.1290    23.8470    29.0060 C.3          1 5GP201   0.0000
     8 O4'         22.8050    22.5990    29.6390 O.3          1 5GP201   0.0000
     9 C3'         21.8070    24.3560    28.3700 C.3          1 5GP201   0.0000
    10 O3'         22.0230    24.5210    26.9110 O.3          1 5GP201   0.0000
    11 C2'         20.7930    23.2930    28.6830 C.3          1 5GP201   0.0000
    12 O2'         20.2630    22.6070    27.5550 O.3          1 5GP201   0.0000
    13 C1'         21.4280    22.2780    29.6050 C.3          1 5GP201   0.0000
    14 N9          21.1720    22.3260    31.0920 N.pl3        1 5GP201   0.0000
    15 C8          21.8810    22.6210    32.2240 C.2          1 5GP201   0.0000
    16 N7          21.2380    22.5160    33.3440 N.2          1 5GP201   0.0000
    17 C5          19.9750    22.1150    32.9970 C.2          1 5GP201   0.0000
    18 C6          18.8220    21.8240    33.6800 C.2          1 5GP201   0.0000
    19 O6          18.7680    21.8960    34.9280 O.2          1 5GP201   0.0000
    20 N1          17.6320    21.4210    32.9910 N.pl3        1 5GP201   0.0000
    21 C2          17.5910    21.3060    31.5750 C.2          1 5GP201   0.0000
    22 N2          16.4870    20.9330    30.9450 N.pl3        1 5GP201   0.0000
    23 N3          18.7530    21.5970    30.8460 N.2          1 5GP201   0.0000
    24 C4          19.9360    22.0020    31.5790 C.2          1 5GP201   0.0000
    25 H5'1        23.8778    25.5566    29.8187 H            1 5GP201   0.0000
    26 H5'2        22.8956    24.7279    30.8262 H            1 5GP201   0.0000
    27 H4'         23.8387    23.7251    28.3122 H            1 5GP201   0.0000
    28 H3'         21.5362    25.2262    28.7816 H            1 5GP201   0.0000
    29 H5          22.3464    25.4487    26.7247 H            1 5GP201   0.0000
    30 H2'         20.0329    23.7227    29.1705 H            1 5GP201   0.0000
    31 H7          20.6768    22.9693    26.7198 H            1 5GP201   0.0000
    32 H1'         21.2917    21.3513    29.2547 H            1 5GP201   0.0000
    33 H9          22.8402    22.9015    32.1892 H            1 5GP201   0.0000
    34 H10         16.4812    20.8588    29.9478 H            1 5GP201   0.0000
    35 H11         15.6594    20.7256    31.4667 H            1 5GP201   0.0000
    36 H12         16.8089    21.2153    33.5203 H            1 5GP201   0.0000
@<TRIPOS>BOND
     1    1    2      ar
     2    1    3      ar
     3    1    4      ar
     4    1    5       1
     5    5    6       1
     6    6    7       1
     7    7    8       1
     8    7    9       1
     9    8   13       1
    10    9   10       1
    11    9   11       1
    12   11   12       1
    13   11   13       1
    14   13   14       1
    15   14   15       1
    16   14   24       1
    17   15   16       2
    18   16   17       1
    19   17   18       1
    20   17   24       2
    21   18   19       2
    22   18   20       1
    23   20   21       1
    24   21   22       1
    25   21   23       2
    26   23   24       1
    27   20   36       1
    28   22   35       1
    29    6   25       1
    30    6   26       1
    31    7   27       1
    32    9   28       1
    33   10   29       1
    34   11   30       1
    35   12   31       1
    36   13   32       1
    37   15   33       1
    38   22   34       1
@<TRIPOS>SUBSTRUCTURE
     1 5GP201      1 GROUP             4 B     5GP     0 **** 5GP B 201
