2fxv_5GP_2_ligand
  -OEChem-08111718373D

 36 38  0     1  0  0  0  0  0999 V2000
   22.8402   22.9015   32.1892 H   0  0  0  0  0  0  0  0  0  0  0  0
   21.5362   25.2262   28.7816 H   0  0  0  0  0  0  0  0  0  0  0  0
   20.0329   23.7227   29.1705 H   0  0  0  0  0  0  0  0  0  0  0  0
   23.8387   23.7251   28.3122 H   0  0  0  0  0  0  0  0  0  0  0  0
   21.2917   21.3513   29.2547 H   0  0  0  0  0  0  0  0  0  0  0  0
   23.8778   25.5566   29.8187 H   0  0  0  0  0  0  0  0  0  0  0  0
   22.8956   24.7279   30.8262 H   0  0  0  0  0  0  0  0  0  0  0  0
   16.8089   21.2153   33.5203 H   0  0  0  0  0  0  0  0  0  0  0  0
   16.4812   20.8588   29.9478 H   0  0  0  0  0  0  0  0  0  0  0  0
   15.6594   20.7256   31.4667 H   0  0  0  0  0  0  0  0  0  0  0  0
   22.3464   25.4487   26.7247 H   0  0  0  0  0  0  0  0  0  0  0  0
   20.6768   22.9693   26.7198 H   0  0  0  0  0  0  0  0  0  0  0  0
   21.8810   22.6210   32.2240 C   0  0  0  0  0  0  0  0  0  0  0  0
   19.9750   22.1150   32.9970 C   0  0  0  0  0  0  0  0  0  0  0  0
   19.9360   22.0020   31.5790 C   0  0  0  0  0  0  0  0  0  0  0  0
   18.8220   21.8240   33.6800 C   0  0  0  0  0  0  0  0  0  0  0  0
   17.5910   21.3060   31.5750 C   0  0  0  0  0  0  0  0  0  0  0  0
   21.8070   24.3560   28.3700 C   0  0  1  0  0  0  0  0  0  0  0  0
   20.7930   23.2930   28.6830 C   0  0  2  0  0  0  0  0  0  0  0  0
   23.1290   23.8470   29.0060 C   0  0  1  0  0  0  0  0  0  0  0  0
   21.4280   22.2780   29.6050 C   0  0  2  0  0  0  0  0  0  0  0  0
   23.6370   24.6480   30.1600 C   0  0  1  0  0  0  0  0  0  0  0  0
   21.2380   22.5160   33.3440 N   0  0  0  0  0  0  0  0  0  0  0  0
   18.7530   21.5970   30.8460 N   0  0  0  0  0  0  0  0  0  0  0  0
   17.6320   21.4210   32.9910 N   0  0  0  0  0  0  0  0  0  0  0  0
   21.1720   22.3260   31.0920 N   0  0  0  0  0  0  0  0  0  0  0  0
   16.4870   20.9330   30.9450 N   0  0  0  0  0  0  0  0  0  0  0  0
   27.0350   24.0340   31.7870 O   0  5  0  0  0  0  0  0  0  0  0  0
   25.8050   26.2010   31.5520 O   0  5  0  0  0  0  0  0  0  0  0  0
   18.7680   21.8960   34.9280 O   0  0  0  0  0  0  0  0  0  0  0  0
   26.6490   25.1390   29.5570 O   0  0  0  0  0  0  0  0  0  0  0  0
   22.8050   22.5990   29.6390 O   0  0  0  0  0  0  0  0  0  0  0  0
   22.0230   24.5210   26.9110 O   0  0  0  0  0  0  0  0  0  0  0  0
   20.2630   22.6070   27.5550 O   0  0  0  0  0  0  0  0  0  0  0  0
   24.7590   24.1290   30.8270 O   0  0  0  0  0  0  0  0  0  0  0  0
   26.0960   24.8690   31.0000 P   0  0  0  0  0  0  0  0  0  0  0  0
  1 13  1  0  0  0  0
  2 18  1  0  0  0  0
  3 19  1  0  0  0  0
  4 20  1  0  0  0  0
  5 21  1  0  0  0  0
  6 22  1  0  0  0  0
  7 22  1  0  0  0  0
  8 25  1  0  0  0  0
  9 27  1  0  0  0  0
 10 27  1  0  0  0  0
 11 33  1  0  0  0  0
 12 34  1  0  0  0  0
 13 23  2  0  0  0  0
 13 26  1  0  0  0  0
 14 15  2  0  0  0  0
 14 16  1  0  0  0  0
 14 23  1  0  0  0  0
 15 24  1  0  0  0  0
 15 26  1  0  0  0  0
 16 25  1  0  0  0  0
 16 30  2  0  0  0  0
 17 24  2  0  0  0  0
 17 25  1  0  0  0  0
 17 27  1  0  0  0  0
 18 19  1  0  0  0  0
 18 20  1  0  0  0  0
 18 33  1  0  0  0  0
 19 21  1  0  0  0  0
 19 34  1  0  0  0  0
 20 22  1  0  0  0  0
 20 32  1  0  0  0  0
 21 26  1  0  0  0  0
 21 32  1  0  0  0  0
 22 35  1  0  0  0  0
 28 36  1  0  0  0  0
 29 36  1  0  0  0  0
 31 36  2  0  0  0  0
 35 36  1  0  0  0  0
M  CHG  2  28  -1  29  -1
M  END
> <scpdb_id>
2fxv_2

$$$$
