#    Name: 13551
#    Modification time : Tue Aug  8 19:27:24 2017

@<TRIPOS>MOLECULE
13551
   57     0     9     0     0
SMALL
NO_CHARGES


@<TRIPOS>ATOM
      1 N          32.0970   94.8760   65.8520 N.am      1 SEL1        0.0000 
      2 N          30.2580   93.5570   65.7410 N.am      1 SEL1        0.0000 
      3 N          25.9380   87.8800   69.3210 N.am      1 SEL1        0.0000 
      4 N          23.4770   90.6930   64.3010 N.am      1 SEL1        0.0000 
      5 O          33.8310   92.9940   66.4980 O.2       2 ALL2        0.0000 
      6 O          28.1580   86.2970   68.7150 O.2       2 ALL2        0.0000 
      7 O          25.9380   87.8800   69.3210 O.2       2 ALL2        0.0000 
      8 O          24.8610   91.2890   62.4770 O.2       2 ALL2        0.0000 
      9 CA         31.7640   91.7710   67.4800 C.3       3 GLL5        0.0000 
     10 CA         31.2240   89.7900   69.2170 C.3       3 GLL5        0.0000 
     11 CA         30.3510   88.6970   68.1810 C.3       3 GLL5        0.0000 
     12 CA         28.8630   88.5850   68.7060 C.3       3 GLL5        0.0000 
     13 CA         26.8620   89.6850   67.8860 C.3       3 GLL5        0.0000 
     14 CA         32.4210   90.5230   68.0310 C.3       3 GLL5        0.0000 
     15 CA         26.6160   88.1810   68.1020 C.3       3 GLL5        0.0000 
     16 N          33.8150   95.4310   63.4470 N.am      4 SEP1        0.0000 
     17 N          30.6790   96.9830   66.7740 N.am      4 SEP1        0.0000 
     18 N          28.1840   95.8260   65.7630 N.am      4 SEP1        0.0000 
     19 N          26.1700   87.2670   72.4190 N.am      4 SEP1        0.0000 
     20 N          21.8180   91.8140   62.1410 N.am      4 SEP1        0.0000 
     21 O          34.4980   90.6890   65.1530 O.2       5 ALP2        0.0000 
     22 O          34.8780   93.4620   68.8610 O.2       5 ALP2        0.0000 
     23 O          35.8170   94.8960   65.3530 O.2       5 ALP2        0.0000 
     24 O          27.7040   85.2150   71.2360 O.2       5 ALP2        0.0000 
     25 O          23.2190   87.5530   69.0590 O.2       5 ALP2        0.0000 
     26 O          27.3710   90.9300   60.0980 O.2       5 ALP2        0.0000 
     27 O          23.7130   92.6360   60.5220 O.2       5 ALP2        0.0000 
     28 CA         27.9340   93.8090   68.0230 C.3       6 GLP5        0.0000 
     29 CA         33.1180   92.5270   71.2260 C.3       6 GLP5        0.0000 
     30 CA         28.5770   91.6330   71.4480 C.3       6 GLP5        0.0000 
     31 CA         31.5520   88.4040   64.7860 C.3       6 GLP5        0.0000 
     32 CA         25.5170   93.6410   67.4280 C.3       6 GLP5        0.0000 
     33 CA         25.1330   86.6050   64.7780 C.3       6 GLP5        0.0000 
     34 CA         24.8070   90.6130   70.5980 C.3       6 GLP5        0.0000 
     35 N          32.9560   95.1535   64.6495 N.am      7 SEC1        0.0000 
     36 N          31.3880   95.9295   66.3130 N.am      7 SEC1        0.0000 
     37 N          29.2210   94.6915   65.7520 N.am      7 SEC1        0.0000 
     38 N          26.0540   87.5735   70.8700 N.am      7 SEC1        0.0000 
     39 N          22.6475   91.2535   63.2210 N.am      7 SEC1        0.0000 
     40 O          34.1645   91.8415   65.8255 O.2       8 ALC2        0.0000 
     41 O          34.3545   93.2280   67.6795 O.2       8 ALC2        0.0000 
     42 O          34.8240   93.9450   65.9255 O.2       8 ALC2        0.0000 
     43 O          27.9310   85.7560   69.9755 O.2       8 ALC2        0.0000 
     44 O          24.5785   87.7165   69.1900 O.2       8 ALC2        0.0000 
     45 O          26.1160   91.1095   61.2875 O.2       8 ALC2        0.0000 
     46 O          24.2870   91.9625   61.4995 O.2       8 ALC2        0.0000 
     47 CA         29.8490   92.7900   67.7515 C.3       9 GLC5        0.0000 
     48 CA         32.1710   91.1585   70.2215 C.3       9 GLC5        0.0000 
     49 CA         29.9005   90.7115   70.3325 C.3       9 GLC5        0.0000 
     50 CA         30.9515   88.5505   66.4835 C.3       9 GLC5        0.0000 
     51 CA         28.7200   90.1090   70.0770 C.3       9 GLC5        0.0000 
     52 CA         26.1895   91.6630   67.6570 C.3       9 GLC5        0.0000 
     53 CA         27.7195   90.6590   69.6670 C.3       9 GLC5        0.0000 
     54 CA         31.8223   89.7755   66.2708 C.3       9 GLC5        0.0000 
     55 CA         32.6052   91.8370   69.4908 C.3       9 GLC5        0.0000 
     56 CA         26.2282   87.2348   66.4245 C.3       9 GLC5        0.0000 
     57 CA         25.7730   89.7730   69.2960 C.3       9 GLC5        0.0000 
@<TRIPOS>BOND
@<TRIPOS>SUBSTRUCTURE
     1 SEL1        1 GROUP        1 Z    SEL  0     ROOT SEL Z 0
     2 ALL2        5 GROUP        1 Z    ALL  0     **** ALL Z 1
     3 GLL5        9 GROUP        1 Z    GLL  0     **** GLL Z 4
     4 SEP1       16 GROUP        1 Z    SEP  0     **** SEP Z 7
     5 ALP2       21 GROUP        1 Z    ALP  0     **** ALP Z 8
     6 GLP5       28 GROUP        1 Z    GLP  0     **** GLP Z 11
     7 SEC1       35 GROUP        1 Z    SEC  0     **** SEC Z 14
     8 ALC2       40 GROUP        1 Z    ALC  0     **** ALC Z 15
     9 GLC5       47 GROUP        1 Z    GLC  0     **** GLC Z 18
@<TRIPOS>SET

