2dsi_SAH_1_ligand
  -OEChem-08111718373D

 46 48  0     1  0  0  0  0  0999 V2000
   22.3394   90.1684   65.9076 H   0  0  0  0  0  0  0  0  0  0  0  0
   28.7344   90.3707   65.7970 H   0  0  0  0  0  0  0  0  0  0  0  0
   28.3150   87.4479   67.0864 H   0  0  0  0  0  0  0  0  0  0  0  0
   26.0738   87.8312   67.3380 H   0  0  0  0  0  0  0  0  0  0  0  0
   28.8757   88.4114   69.6907 H   0  0  0  0  0  0  0  0  0  0  0  0
   26.2035   90.2132   68.4221 H   0  0  0  0  0  0  0  0  0  0  0  0
   30.7840   87.7958   68.2007 H   0  0  0  0  0  0  0  0  0  0  0  0
   30.3524   89.0471   67.2443 H   0  0  0  0  0  0  0  0  0  0  0  0
   30.8455   91.5082   67.1845 H   0  0  0  0  0  0  0  0  0  0  0  0
   31.6974   92.4213   68.2368 H   0  0  0  0  0  0  0  0  0  0  0  0
   33.2726   90.7582   68.4995 H   0  0  0  0  0  0  0  0  0  0  0  0
   32.6144   89.8783   67.2914 H   0  0  0  0  0  0  0  0  0  0  0  0
   32.3844   91.8840   65.5479 H   0  0  0  0  0  0  0  0  0  0  0  0
   24.0495   91.4422   61.9130 H   0  0  0  0  0  0  0  0  0  0  0  0
   25.7724   91.4298   62.0904 H   0  0  0  0  0  0  0  0  0  0  0  0
   33.9644   93.8208   65.9516 H   0  0  0  0  0  0  0  0  0  0  0  0
   34.4641   92.2844   66.1888 H   0  0  0  0  0  0  0  0  0  0  0  0
   27.8552   86.3974   69.6628 H   0  0  0  0  0  0  0  0  0  0  0  0
   24.9520   87.8535   69.1563 H   0  0  0  0  0  0  0  0  0  0  0  0
   23.2790   90.2910   65.5880 C   0  0  0  0  0  0  0  0  0  0  0  0
   27.7500   90.3980   65.6230 C   0  0  0  0  0  0  0  0  0  0  0  0
   25.8370   90.6460   64.6510 C   0  0  0  0  0  0  0  0  0  0  0  0
   25.5540   90.2440   65.9330 C   0  0  0  0  0  0  0  0  0  0  0  0
   24.7270   90.8950   63.7510 C   0  0  0  0  0  0  0  0  0  0  0  0
   31.5290   93.7680   65.9450 C   0  0  0  0  0  0  0  0  0  0  0  0
   28.0310   87.5480   68.0400 C   0  0  1  0  0  0  0  0  0  0  0  0
   26.6160   88.1810   68.1020 C   0  0  2  0  0  0  0  0  0  0  0  0
   28.8630   88.5850   68.7060 C   0  0  1  0  0  0  0  0  0  0  0  0
   26.8620   89.6850   67.8860 C   0  0  2  0  0  0  0  0  0  0  0  0
   30.3510   88.6970   68.1810 C   0  0  1  0  0  0  0  0  0  0  0  0
   31.7640   91.7710   67.4800 C   0  0  1  0  0  0  0  0  0  0  0  0
   32.4210   90.5230   68.0310 C   0  0  2  0  0  0  0  0  0  0  0  0
   32.3960   92.5020   66.3340 C   0  0  2  0  0  0  0  0  0  0  0  0
   24.3070   90.0450   66.4710 N   0  0  0  0  0  0  0  0  0  0  0  0
   23.4770   90.6930   64.3010 N   0  0  0  0  0  0  0  0  0  0  0  0
   27.2520   90.7390   64.4700 N   0  0  0  0  0  0  0  0  0  0  0  0
   26.8110   90.0750   66.5930 N   0  0  0  0  0  0  0  0  0  0  0  0
   24.8610   91.2890   62.4770 N   0  0  0  0  0  0  0  0  0  0  0  0
   33.8310   92.9940   66.4980 N   0  3  0  0  0  0  0  0  0  0  0  0
   30.2580   93.5570   65.7410 O   0  5  0  0  0  0  0  0  0  0  0  0
   32.0970   94.8760   65.8520 O   0  0  0  0  0  0  0  0  0  0  0  0
   28.2300   89.8600   68.4590 O   0  0  0  0  0  0  0  0  0  0  0  0
   28.1580   86.2970   68.7150 O   0  0  0  0  0  0  0  0  0  0  0  0
   25.9380   87.8800   69.3210 O   0  0  0  0  0  0  0  0  0  0  0  0
   31.2240   89.7900   69.2170 S   0  0  0  0  0  0  0  0  0  0  0  0
   34.0050   93.1993   67.4611 H   0  0  0  0  0  0  0  0  0  0  0  0
  1 20  1  0  0  0  0
  2 21  1  0  0  0  0
  3 26  1  0  0  0  0
  4 27  1  0  0  0  0
  5 28  1  0  0  0  0
  6 29  1  0  0  0  0
  7 30  1  0  0  0  0
  8 30  1  0  0  0  0
  9 31  1  0  0  0  0
 10 31  1  0  0  0  0
 11 32  1  0  0  0  0
 12 32  1  0  0  0  0
 13 33  1  0  0  0  0
 14 38  1  0  0  0  0
 15 38  1  0  0  0  0
 16 39  1  0  0  0  0
 17 39  1  0  0  0  0
 18 43  1  0  0  0  0
 19 44  1  0  0  0  0
 20 34  1  0  0  0  0
 20 35  2  0  0  0  0
 21 36  2  0  0  0  0
 21 37  1  0  0  0  0
 22 23  1  0  0  0  0
 22 24  2  0  0  0  0
 22 36  1  0  0  0  0
 23 34  2  0  0  0  0
 23 37  1  0  0  0  0
 24 35  1  0  0  0  0
 24 38  1  0  0  0  0
 25 33  1  0  0  0  0
 25 40  1  0  0  0  0
 25 41  2  0  0  0  0
 26 27  1  0  0  0  0
 26 28  1  0  0  0  0
 26 43  1  0  0  0  0
 27 29  1  0  0  0  0
 27 44  1  0  0  0  0
 28 30  1  0  0  0  0
 28 42  1  0  0  0  0
 29 37  1  0  0  0  0
 29 42  1  0  0  0  0
 30 45  1  0  0  0  0
 31 32  1  0  0  0  0
 31 33  1  0  0  0  0
 32 45  1  0  0  0  0
 33 39  1  0  0  0  0
 39 46  1  0  0  0  0
M  CHG  2  39   1  40  -1
M  END
> <scpdb_id>
2dsi_1

$$$$
