@<TRIPOS>MOLECULE
2dsi_SAH_1_ligand
   46    48     1     0     0
SMALL
NO_CHARGES


@<TRIPOS>ATOM
     1 N           33.8310    92.9940    66.4980 N.4          1 SAH1300   1.0000
     2 CA          32.3960    92.5020    66.3340 C.3          1 SAH1300   0.0000
     3 CB          31.7640    91.7710    67.4800 C.3          1 SAH1300   0.0000
     4 CG          32.4210    90.5230    68.0310 C.3          1 SAH1300   0.0000
     5 SD          31.2240    89.7900    69.2170 S.3          1 SAH1300   0.0000
     6 C           31.5290    93.7680    65.9450 C.2          1 SAH1300   0.0000
     7 O           32.0970    94.8760    65.8520 O.co2        1 SAH1300   0.0000
     8 OXT         30.2580    93.5570    65.7410 O.co2        1 SAH1300  -1.0000
     9 C5'         30.3510    88.6970    68.1810 C.3          1 SAH1300   0.0000
    10 C4'         28.8630    88.5850    68.7060 C.3          1 SAH1300   0.0000
    11 O4'         28.2300    89.8600    68.4590 O.3          1 SAH1300   0.0000
    12 C3'         28.0310    87.5480    68.0400 C.3          1 SAH1300   0.0000
    13 O3'         28.1580    86.2970    68.7150 O.3          1 SAH1300   0.0000
    14 C2'         26.6160    88.1810    68.1020 C.3          1 SAH1300   0.0000
    15 O2'         25.9380    87.8800    69.3210 O.3          1 SAH1300   0.0000
    16 C1'         26.8620    89.6850    67.8860 C.3          1 SAH1300   0.0000
    17 N9          26.8110    90.0750    66.5930 N.pl3        1 SAH1300   0.0000
    18 C8          27.7500    90.3980    65.6230 C.2          1 SAH1300   0.0000
    19 N7          27.2520    90.7390    64.4700 N.2          1 SAH1300   0.0000
    20 C5          25.8370    90.6460    64.6510 C.ar         1 SAH1300   0.0000
    21 C6          24.7270    90.8950    63.7510 C.ar         1 SAH1300   0.0000
    22 N6          24.8610    91.2890    62.4770 N.pl3        1 SAH1300   0.0000
    23 N1          23.4770    90.6930    64.3010 N.ar         1 SAH1300   0.0000
    24 C2          23.2790    90.2910    65.5880 C.ar         1 SAH1300   0.0000
    25 N3          24.3070    90.0450    66.4710 N.ar         1 SAH1300   0.0000
    26 C4          25.5540    90.2440    65.9330 C.ar         1 SAH1300   0.0000
    27 H1          34.4641    92.2843    66.1888 H            1 SAH1300   0.0000
    28 H2          33.9644    93.8208    65.9515 H            1 SAH1300   0.0000
    29 HA          32.3844    91.8840    65.5479 H            1 SAH1300   0.0000
    30 HB1         30.8455    91.5082    67.1845 H            1 SAH1300   0.0000
    31 HB2         31.6974    92.4213    68.2368 H            1 SAH1300   0.0000
    32 HG1         33.2726    90.7582    68.4995 H            1 SAH1300   0.0000
    33 HG2         32.6144    89.8783    67.2914 H            1 SAH1300   0.0000
    34 H5'1        30.7840    87.7958    68.2007 H            1 SAH1300   0.0000
    35 H5'2        30.3524    89.0471    67.2443 H            1 SAH1300   0.0000
    36 H4'         28.8757    88.4114    69.6907 H            1 SAH1300   0.0000
    37 H3'         28.3150    87.4479    67.0864 H            1 SAH1300   0.0000
    38 H12         27.8552    86.3974    69.6628 H            1 SAH1300   0.0000
    39 H2'         26.0738    87.8312    67.3380 H            1 SAH1300   0.0000
    40 H14         24.9520    87.8535    69.1563 H            1 SAH1300   0.0000
    41 H1'         26.2035    90.2132    68.4221 H            1 SAH1300   0.0000
    42 H16         28.7344    90.3707    65.7970 H            1 SAH1300   0.0000
    43 H17         24.0495    91.4422    61.9130 H            1 SAH1300   0.0000
    44 H18         25.7724    91.4298    62.0904 H            1 SAH1300   0.0000
    45 H19         22.3394    90.1684    65.9076 H            1 SAH1300   0.0000
    46 H20         34.0050    93.1993    67.4611 H            1 SAH1300   0.0000
@<TRIPOS>BOND
     1    1    2       1
     2    2    3       1
     3    2    6       1
     4    3    4       1
     5    4    5       1
     6    5    9       1
     7    6    7      ar
     8    6    8      ar
     9    9   10       1
    10   10   11       1
    11   10   12       1
    12   11   16       1
    13   12   13       1
    14   12   14       1
    15   14   15       1
    16   14   16       1
    17   16   17       1
    18   17   18       1
    19   17   26       1
    20   18   19       2
    21   19   20       1
    22   20   21      ar
    23   20   26      ar
    24   21   22       1
    25   21   23      ar
    26   23   24      ar
    27   24   25      ar
    28   25   26      ar
    29    1   27       1
    30    1   28       1
    31    2   29       1
    32    3   30       1
    33    3   31       1
    34    4   32       1
    35    4   33       1
    36    1   46       1
    37    9   34       1
    38    9   35       1
    39   10   36       1
    40   12   37       1
    41   13   38       1
    42   14   39       1
    43   15   40       1
    44   16   41       1
    45   18   42       1
    46   22   43       1
    47   22   44       1
    48   24   45       1
@<TRIPOS>SUBSTRUCTURE
     1 SAH1300     1 GROUP             4 A     SAH     0 **** SAH A1300
