#    Name: 21544
#    Modification time : Tue Aug  8 20:12:32 2017

@<TRIPOS>MOLECULE
21544
   65     0     9     0     0
SMALL
NO_CHARGES


@<TRIPOS>ATOM
      1 N          21.2780   15.7080    7.2820 N.am      1 SEL1        0.0000 
      2 O          21.2780   15.7080    7.2820 O.2       2 ALL2        0.0000 
      3 O          25.8320    6.4870   11.7490 O.2       2 ALL2        0.0000 
      4 CA         21.2280   13.2170    7.4460 C.3       3 GLL5        0.0000 
      5 CA         22.5070   14.6160    9.0660 C.3       3 GLL5        0.0000 
      6 CA         23.7680   13.6690   11.0250 C.3       3 GLL5        0.0000 
      7 CA         24.1660   12.3960   11.8140 C.3       3 GLL5        0.0000 
      8 CA         22.9940   10.8470   10.0560 C.3       3 GLL5        0.0000 
      9 CA         23.4180    9.6590    9.1060 C.3       3 GLL5        0.0000 
     10 CA         23.7860    8.3720    9.9150 C.3       3 GLL5        0.0000 
     11 CA         25.5370    9.8870   12.9650 C.3       3 GLL5        0.0000 
     12 CA         25.8540    8.3640   13.1840 C.3       3 GLL5        0.0000 
     13 CA         25.0260    7.6060   12.0970 C.3       3 GLL5        0.0000 
     14 CA         26.2390    8.9520   10.2480 C.3       3 GLL5        0.0000 
     15 CA         21.6660   12.0110    8.1270 C.3       3 GLL5        0.0000 
     16 CA         24.2820   11.1180   10.9490 C.3       3 GLL5        0.0000 
     17 N          22.0790   18.3350    6.6180 N.am      4 SEP1        0.0000 
     18 N          19.1040   17.6000    8.1940 N.am      4 SEP1        0.0000 
     19 O          20.9020   17.2520    4.5340 O.2       5 ALP2        0.0000 
     20 O          26.0580    5.1250   14.1610 O.2       5 ALP2        0.0000 
     21 CA         17.2150   13.0520    6.3380 C.3       6 GLP5        0.0000 
     22 CA         21.2990   17.7500   11.4800 C.3       6 GLP5        0.0000 
     23 CA         26.6800   15.7050   12.0820 C.3       6 GLP5        0.0000 
     24 CA         27.5880   13.4640   13.4040 C.3       6 GLP5        0.0000 
     25 CA         23.4280   14.2180   15.6810 C.3       6 GLP5        0.0000 
     26 CA         19.7620   12.6950   11.6750 C.3       6 GLP5        0.0000 
     27 CA         23.3790   10.7490    4.9760 C.3       6 GLP5        0.0000 
     28 CA         23.5110    4.1210   10.3240 C.3       6 GLP5        0.0000 
     29 CA         23.2840    5.4470    6.6880 C.3       6 GLP5        0.0000 
     30 CA         25.7860   11.3260   16.6190 C.3       6 GLP5        0.0000 
     31 CA         27.1820    8.4660   16.7920 C.3       6 GLP5        0.0000 
     32 CA         28.3670    5.6910   14.9570 C.3       6 GLP5        0.0000 
     33 CA         27.6600   12.8470    9.3530 C.3       6 GLP5        0.0000 
     34 CA         28.6170    5.7010    9.5790 C.3       6 GLP5        0.0000 
     35 CA         25.4390   15.8120    7.1380 C.3       6 GLP5        0.0000 
     36 CA         21.1870   15.7040   12.9650 C.3       6 GLP5        0.0000 
     37 CA         19.7190    8.1110    9.2970 C.3       6 GLP5        0.0000 
     38 CA         22.8400    8.2970   15.1480 C.3       6 GLP5        0.0000 
     39 N          21.6785   17.0215    6.9500 N.am      7 SEC1        0.0000 
     40 N          20.1910   16.6540    7.7380 N.am      7 SEC1        0.0000 
     41 O          21.0900   16.4800    5.9080 O.2       8 ALC2        0.0000 
     42 O          25.9450    5.8060   12.9550 O.2       8 ALC2        0.0000 
     43 CA         19.2215   13.1345    6.8920 C.3       9 GLC5        0.0000 
     44 CA         21.9030   16.1830   10.2730 C.3       9 GLC5        0.0000 
     45 CA         25.2240   14.6870   11.5535 C.3       9 GLC5        0.0000 
     46 CA         25.8770   12.9300   12.6090 C.3       9 GLC5        0.0000 
     47 CA         23.7970   13.3070   13.7475 C.3       9 GLC5        0.0000 
     48 CA         21.3780   11.7710   10.8655 C.3       9 GLC5        0.0000 
     49 CA         23.3985   10.2040    7.0410 C.3       9 GLC5        0.0000 
     50 CA         23.6485    6.2465   10.1195 C.3       9 GLC5        0.0000 
     51 CA         23.5350    6.9095    8.3015 C.3       9 GLC5        0.0000 
     52 CA         26.5625   11.6755   13.1845 C.3       9 GLC5        0.0000 
     53 CA         25.6615   10.6065   14.7920 C.3       9 GLC5        0.0000 
     54 CA         26.5180    8.4150   14.9880 C.3       9 GLC5        0.0000 
     55 CA         27.1105    7.0275   14.0705 C.3       9 GLC5        0.0000 
     56 CA         24.2685    5.8635   11.2105 C.3       9 GLC5        0.0000 
     57 CA         26.9495   10.8995    9.8005 C.3       9 GLC5        0.0000 
     58 CA         27.4280    7.3265    9.9135 C.3       9 GLC5        0.0000 
     59 CA         22.4130   11.6815    6.3813 C.3       9 GLC5        0.0000 
     60 CA         23.9684   14.9129    8.1369 C.3       9 GLC5        0.0000 
     61 CA         22.2625   14.6337   11.6815 C.3       9 GLC5        0.0000 
     62 CA         21.8645   12.8637   11.5473 C.3       9 GLC5        0.0000 
     63 CA         25.8922   12.4611   10.2686 C.3       9 GLC5        0.0000 
     64 CA         21.6075    8.7118    9.5225 C.3       9 GLC5        0.0000 
     65 CA         24.1352    8.4251   13.9355 C.3       9 GLC5        0.0000 
@<TRIPOS>BOND
@<TRIPOS>SUBSTRUCTURE
     1 SEL1        1 GROUP        1 Z    SEL  0     ROOT SEL Z 0
     2 ALL2        2 GROUP        1 Z    ALL  0     **** ALL Z 1
     3 GLL5        4 GROUP        1 Z    GLL  0     **** GLL Z 4
     4 SEP1       17 GROUP        1 Z    SEP  0     **** SEP Z 7
     5 ALP2       19 GROUP        1 Z    ALP  0     **** ALP Z 8
     6 GLP5       21 GROUP        1 Z    GLP  0     **** GLP Z 11
     7 SEC1       39 GROUP        1 Z    SEC  0     **** SEC Z 14
     8 ALC2       41 GROUP        1 Z    ALC  0     **** ALC Z 15
     9 GLC5       43 GROUP        1 Z    GLC  0     **** GLC Z 18
@<TRIPOS>SET

