2yja_EST_1_ligand
  -OEChem-08111718373D

 44 47  0     1  0  0  0  0  0999 V2000
   21.3823   11.1152    7.7849 H   0  0  0  0  0  0  0  0  0  0  0  0
   20.6292   13.1545    6.6476 H   0  0  0  0  0  0  0  0  0  0  0  0
   22.8224   15.5139    9.3731 H   0  0  0  0  0  0  0  0  0  0  0  0
   23.2582   14.2642   11.6462 H   0  0  0  0  0  0  0  0  0  0  0  0
   24.6109   14.1265   10.7417 H   0  0  0  0  0  0  0  0  0  0  0  0
   23.4743   12.2354   12.5181 H   0  0  0  0  0  0  0  0  0  0  0  0
   25.0515   12.5612   12.2482 H   0  0  0  0  0  0  0  0  0  0  0  0
   24.2125    9.9419    8.5687 H   0  0  0  0  0  0  0  0  0  0  0  0
   22.6577    9.4487    8.4914 H   0  0  0  0  0  0  0  0  0  0  0  0
   25.2049   10.3084   13.8089 H   0  0  0  0  0  0  0  0  0  0  0  0
   26.3463   10.3783   12.6431 H   0  0  0  0  0  0  0  0  0  0  0  0
   25.5742    8.0768   14.1001 H   0  0  0  0  0  0  0  0  0  0  0  0
   26.8313    8.1895   13.0639 H   0  0  0  0  0  0  0  0  0  0  0  0
   24.1298    7.6788    9.2816 H   0  0  0  0  0  0  0  0  0  0  0  0
   22.9639    8.0295   10.3699 H   0  0  0  0  0  0  0  0  0  0  0  0
   22.2554   10.5303   10.6511 H   0  0  0  0  0  0  0  0  0  0  0  0
   25.0854   11.1902   10.3579 H   0  0  0  0  0  0  0  0  0  0  0  0
   23.5590    9.6704   12.3195 H   0  0  0  0  0  0  0  0  0  0  0  0
   24.1385    7.3157   12.4549 H   0  0  0  0  0  0  0  0  0  0  0  0
   26.9445    9.1361   10.9324 H   0  0  0  0  0  0  0  0  0  0  0  0
   26.5052    8.1592    9.6997 H   0  0  0  0  0  0  0  0  0  0  0  0
   26.1356    9.7491    9.6531 H   0  0  0  0  0  0  0  0  0  0  0  0
   20.6925   15.6634    6.4726 H   0  0  0  0  0  0  0  0  0  0  0  0
   25.8869    5.8609   12.5268 H   0  0  0  0  0  0  0  0  0  0  0  0
   21.6660   12.0110    8.1270 C   0  0  0  0  0  0  0  0  0  0  0  0
   21.2280   13.2170    7.4460 C   0  0  0  0  0  0  0  0  0  0  0  0
   22.5070   14.6160    9.0660 C   0  0  0  0  0  0  0  0  0  0  0  0
   22.5080   12.1000    9.2940 C   0  0  0  0  0  0  0  0  0  0  0  0
   22.9080   13.4580    9.7710 C   0  0  0  0  0  0  0  0  0  0  0  0
   21.6680   14.5230    7.9350 C   0  0  0  0  0  0  0  0  0  0  0  0
   23.7680   13.6690   11.0250 C   0  0  2  0  0  0  0  0  0  0  0  0
   24.1660   12.3960   11.8140 C   0  0  2  0  0  0  0  0  0  0  0  0
   23.4180    9.6590    9.1060 C   0  0  1  0  0  0  0  0  0  0  0  0
   25.5370    9.8870   12.9650 C   0  0  1  0  0  0  0  0  0  0  0  0
   25.8540    8.3640   13.1840 C   0  0  2  0  0  0  0  0  0  0  0  0
   23.7860    8.3720    9.9150 C   0  0  2  0  0  0  0  0  0  0  0  0
   22.9940   10.8470   10.0560 C   0  0  1  0  0  0  0  0  0  0  0  0
   24.2820   11.1180   10.9490 C   0  0  2  0  0  0  0  0  0  0  0  0
   24.4390    9.8710   11.8890 C   0  0  1  0  0  0  0  0  0  0  0  0
   25.0260    7.6060   12.0970 C   0  0  1  0  0  0  0  0  0  0  0  0
   24.8610    8.6530   10.9760 C   0  0  1  0  0  0  0  0  0  0  0  0
   26.2390    8.9520   10.2480 C   0  0  0  0  0  0  0  0  0  0  0  0
   21.2780   15.7080    7.2820 O   0  0  0  0  0  0  0  0  0  0  0  0
   25.8320    6.4870   11.7490 O   0  0  0  0  0  0  0  0  0  0  0  0
  1 25  1  0  0  0  0
  2 26  1  0  0  0  0
  3 27  1  0  0  0  0
  4 31  1  0  0  0  0
  5 31  1  0  0  0  0
  6 32  1  0  0  0  0
  7 32  1  0  0  0  0
  8 33  1  0  0  0  0
  9 33  1  0  0  0  0
 10 34  1  0  0  0  0
 11 34  1  0  0  0  0
 12 35  1  0  0  0  0
 13 35  1  0  0  0  0
 14 36  1  0  0  0  0
 15 36  1  0  0  0  0
 16 37  1  0  0  0  0
 17 38  1  0  0  0  0
 18 39  1  0  0  0  0
 19 40  1  0  0  0  0
 20 42  1  0  0  0  0
 21 42  1  0  0  0  0
 22 42  1  0  0  0  0
 23 43  1  0  0  0  0
 24 44  1  0  0  0  0
 25 26  2  0  0  0  0
 25 28  1  0  0  0  0
 26 30  1  0  0  0  0
 27 29  1  0  0  0  0
 27 30  2  0  0  0  0
 28 29  2  0  0  0  0
 28 37  1  0  0  0  0
 29 31  1  0  0  0  0
 30 43  1  0  0  0  0
 31 32  1  0  0  0  0
 32 38  1  0  0  0  0
 33 36  1  0  0  0  0
 33 37  1  0  0  0  0
 34 35  1  0  0  0  0
 34 39  1  0  0  0  0
 35 40  1  0  0  0  0
 36 41  1  0  0  0  0
 37 38  1  0  0  0  0
 38 39  1  0  0  0  0
 39 41  1  0  0  0  0
 40 41  1  0  0  0  0
 40 44  1  0  0  0  0
 41 42  1  0  0  0  0
M  END
> <scpdb_id>
2yja_1

$$$$
