@<TRIPOS>MOLECULE
2yja_EST_1_ligand
   44    47     1     0     0
SMALL
NO_CHARGES


@<TRIPOS>ATOM
     1 C1          21.6660    12.0110     8.1270 C.ar         1 EST1550   0.0000
     2 C2          21.2280    13.2170     7.4460 C.ar         1 EST1550   0.0000
     3 C3          21.6680    14.5230     7.9350 C.ar         1 EST1550   0.0000
     4 O3          21.2780    15.7080     7.2820 O.3          1 EST1550   0.0000
     5 C4          22.5070    14.6160     9.0660 C.ar         1 EST1550   0.0000
     6 C5          22.9080    13.4580     9.7710 C.ar         1 EST1550   0.0000
     7 C6          23.7680    13.6690    11.0250 C.3          1 EST1550   0.0000
     8 C7          24.1660    12.3960    11.8140 C.3          1 EST1550   0.0000
     9 C8          24.2820    11.1180    10.9490 C.3          1 EST1550   0.0000
    10 C9          22.9940    10.8470    10.0560 C.3          1 EST1550   0.0000
    11 C10         22.5080    12.1000     9.2940 C.ar         1 EST1550   0.0000
    12 C11         23.4180     9.6590     9.1060 C.3          1 EST1550   0.0000
    13 C12         23.7860     8.3720     9.9150 C.3          1 EST1550   0.0000
    14 C13         24.8610     8.6530    10.9760 C.3          1 EST1550   0.0000
    15 C14         24.4390     9.8710    11.8890 C.3          1 EST1550   0.0000
    16 C15         25.5370     9.8870    12.9650 C.3          1 EST1550   0.0000
    17 C16         25.8540     8.3640    13.1840 C.3          1 EST1550   0.0000
    18 C17         25.0260     7.6060    12.0970 C.3          1 EST1550   0.0000
    19 O17         25.8320     6.4870    11.7490 O.3          1 EST1550   0.0000
    20 C18         26.2390     8.9520    10.2480 C.3          1 EST1550   0.0000
    21 H1          21.3823    11.1152     7.7849 H            1 EST1550   0.0000
    22 H2          20.6292    13.1545     6.6476 H            1 EST1550   0.0000
    23 H3          20.6925    15.6634     6.4726 H            1 EST1550   0.0000
    24 H4          22.8224    15.5139     9.3731 H            1 EST1550   0.0000
    25 H5          23.2582    14.2642    11.6462 H            1 EST1550   0.0000
    26 H6          24.6109    14.1265    10.7417 H            1 EST1550   0.0000
    27 H7          23.4743    12.2354    12.5181 H            1 EST1550   0.0000
    28 H8          25.0515    12.5612    12.2482 H            1 EST1550   0.0000
    29 H9          25.0854    11.1902    10.3579 H            1 EST1550   0.0000
    30 H10         22.2554    10.5303    10.6511 H            1 EST1550   0.0000
    31 H11         24.2125     9.9419     8.5687 H            1 EST1550   0.0000
    32 H12         22.6577     9.4487     8.4914 H            1 EST1550   0.0000
    33 H13         24.1298     7.6788     9.2816 H            1 EST1550   0.0000
    34 H14         22.9639     8.0295    10.3699 H            1 EST1550   0.0000
    35 H15         23.5590     9.6704    12.3195 H            1 EST1550   0.0000
    36 H16         25.2049    10.3084    13.8089 H            1 EST1550   0.0000
    37 H17         26.3463    10.3783    12.6431 H            1 EST1550   0.0000
    38 H18         25.5742     8.0768    14.1001 H            1 EST1550   0.0000
    39 H19         26.8313     8.1895    13.0639 H            1 EST1550   0.0000
    40 H20         24.1385     7.3157    12.4549 H            1 EST1550   0.0000
    41 H21         25.8869     5.8609    12.5268 H            1 EST1550   0.0000
    42 H22         26.9445     9.1361    10.9324 H            1 EST1550   0.0000
    43 H23         26.5052     8.1592     9.6997 H            1 EST1550   0.0000
    44 H24         26.1356     9.7491     9.6531 H            1 EST1550   0.0000
@<TRIPOS>BOND
     1    1    2      ar
     2    1   11      ar
     3    2    3      ar
     4    3    4       1
     5    3    5      ar
     6    5    6      ar
     7    6    7       1
     8    6   11      ar
     9    7    8       1
    10    8    9       1
    11    9   10       1
    12    9   15       1
    13   10   11       1
    14   10   12       1
    15   12   13       1
    16   13   14       1
    17   14   15       1
    18   14   18       1
    19   14   20       1
    20   15   16       1
    21   16   17       1
    22   17   18       1
    23   18   19       1
    24    1   21       1
    25    2   22       1
    26    4   23       1
    27    5   24       1
    28    7   25       1
    29    7   26       1
    30    8   27       1
    31    8   28       1
    32    9   29       1
    33   10   30       1
    34   12   31       1
    35   12   32       1
    36   13   33       1
    37   13   34       1
    38   15   35       1
    39   16   36       1
    40   16   37       1
    41   17   38       1
    42   17   39       1
    43   18   40       1
    44   19   41       1
    45   20   42       1
    46   20   43       1
    47   20   44       1
@<TRIPOS>SUBSTRUCTURE
     1 EST1550     1 GROUP             4 B     EST     0 **** EST B1550
