#    Name: 15564
#    Modification time : Wed Aug  9 01:13:49 2017

@<TRIPOS>MOLECULE
15564
   54     0    15     0     0
SMALL
NO_CHARGES


@<TRIPOS>ATOM
      1 N         -14.2880    5.6260  -12.5880 N.am      1 SEL1        0.0000 
      2 N         -15.2620    3.4270  -12.7720 N.am      1 SEL1        0.0000 
      3 N         -16.9720    7.1000  -10.1450 N.am      1 SEL1        0.0000 
      4 N         -18.1890    6.6550  -12.2810 N.am      1 SEL1        0.0000 
      5 N         -18.8620    5.6470  -10.1480 N.am      1 SEL1        0.0000 
      6 N         -21.1390    6.5810  -10.8430 N.am      1 SEL1        0.0000 
      7 N         -24.9760    8.9810   -3.9100 N.am      1 SEL1        0.0000 
      8 O         -25.2970    6.9260   -2.9980 O.2       2 ALL2        0.0000 
      9 O         -25.7220    4.8900   -1.9540 O.2       2 ALL2        0.0000 
     10 NZ        -14.2880    5.6260  -12.5880 N.4       3 LYL3        0.0000 
     11 NZ        -16.9720    7.1000  -10.1450 N.4       3 LYL3        0.0000 
     12 CA        -20.3790    3.6330   -8.5880 C.3       4 GLL5        0.0000 
     13 CA        -23.5810    3.5330   -7.9240 C.3       4 GLL5        0.0000 
     14 CA        -22.6200    2.4020   -8.2640 C.3       4 GLL5        0.0000 
     15 Zn        -16.3640    5.1450  -14.0100 Zn        5 ZIL7        0.0000 
     16 Zn        -18.1890    6.6550  -12.2810 Zn        5 ZIL7        0.0000 
     17 N         -14.3710    7.9940  -10.9250 N.am      6 SEP1        0.0000 
     18 N         -11.4410    6.7490  -13.5160 N.am      6 SEP1        0.0000 
     19 N         -12.3700    2.8400  -12.7740 N.am      6 SEP1        0.0000 
     20 N         -18.7900    9.2640   -9.6790 N.am      6 SEP1        0.0000 
     21 N         -18.5670    7.4640   -7.5380 N.am      6 SEP1        0.0000 
     22 N         -20.0130    9.2390  -12.3000 N.am      6 SEP1        0.0000 
     23 N         -22.6860    8.8110  -11.6890 N.am      6 SEP1        0.0000 
     24 N         -27.8350    9.8310   -5.0570 N.am      6 SEP1        0.0000 
     25 O         -26.1350    8.3960   -0.8420 O.2       7 ALP2        0.0000 
     26 O         -27.1080    6.5350   -0.1420 O.2       7 ALP2        0.0000 
     27 NZ        -14.3710    7.9940  -10.9250 N.4       8 LYP3        0.0000 
     28 CA        -16.3780    2.3530   -7.3420 C.3       9 GLP5        0.0000 
     29 CA        -24.4300    6.3610  -10.3530 C.3       9 GLP5        0.0000 
     30 CA        -27.1320    5.7600   -7.5540 C.3       9 GLP5        0.0000 
     31 CA        -24.1520    2.9050  -11.6980 C.3       9 GLP5        0.0000 
     32 Zn        -18.0220    6.4470  -14.2600 Zn       10 ZIP7        0.0000 
     33 N         -14.3295    6.8100  -11.7565 N.am     11 SEC1        0.0000 
     34 N         -12.8645    6.1875  -13.0520 N.am     11 SEC1        0.0000 
     35 N         -13.3290    4.2330  -12.6810 N.am     11 SEC1        0.0000 
     36 N         -13.8160    3.1335  -12.7730 N.am     11 SEC1        0.0000 
     37 N         -17.8810    8.1820   -9.9120 N.am     11 SEC1        0.0000 
     38 N         -17.7695    7.2820   -8.8415 N.am     11 SEC1        0.0000 
     39 N         -15.6715    7.5470  -10.5350 N.am     11 SEC1        0.0000 
     40 N         -19.1010    7.9470  -12.2905 N.am     11 SEC1        0.0000 
     41 N         -18.7145    6.5555   -8.8430 N.am     11 SEC1        0.0000 
     42 N         -21.9125    7.6960  -11.2660 N.am     11 SEC1        0.0000 
     43 N         -26.4055    9.4060   -4.4835 N.am     11 SEC1        0.0000 
     44 O         -25.7160    7.6610   -1.9200 O.2      12 ALC2        0.0000 
     45 O         -26.2025    6.7305   -1.5700 O.2      12 ALC2        0.0000 
     46 O         -26.4150    5.7125   -1.0480 O.2      12 ALC2        0.0000 
     47 NZ        -14.3295    6.8100  -11.7565 N.4      13 LYC3        0.0000 
     48 NZ        -15.6715    7.5470  -10.5350 N.4      13 LYC3        0.0000 
     49 CA        -18.3785    2.9930   -7.9650 C.3      14 GLC5        0.0000 
     50 CA        -24.0055    4.9470   -9.1385 C.3      14 GLC5        0.0000 
     51 CA        -25.3565    4.6465   -7.7390 C.3      14 GLC5        0.0000 
     52 CA        -23.6263    2.9363   -9.8960 C.3      14 GLC5        0.0000 
     53 Zn        -17.1930    5.7960  -14.1350 Zn       15 ZIC7        0.0000 
     54 Zn        -18.1055    6.5510  -13.2705 Zn       15 ZIC7        0.0000 
@<TRIPOS>BOND
@<TRIPOS>SUBSTRUCTURE
     1 SEL1        1 GROUP        1 Z    SEL  0     ROOT SEL Z 0
     2 ALL2        8 GROUP        1 Z    ALL  0     **** ALL Z 1
     3 LYL3       10 GROUP        1 Z    LYL  0     **** LYL Z 2
     4 GLL5       12 GROUP        1 Z    GLL  0     **** GLL Z 4
     5 ZIL7       15 GROUP        1 Z    ZIL  0     **** ZIL Z 5
     6 SEP1       17 GROUP        1 Z    SEP  0     **** SEP Z 7
     7 ALP2       25 GROUP        1 Z    ALP  0     **** ALP Z 8
     8 LYP3       27 GROUP        1 Z    LYP  0     **** LYP Z 9
     9 GLP5       28 GROUP        1 Z    GLP  0     **** GLP Z 11
    10 ZIP7       32 GROUP        1 Z    ZIP  0     **** ZIP Z 12
    11 SEC1       33 GROUP        1 Z    SEC  0     **** SEC Z 14
    12 ALC2       44 GROUP        1 Z    ALC  0     **** ALC Z 15
    13 LYC3       47 GROUP        1 Z    LYC  0     **** LYC Z 16
    14 GLC5       49 GROUP        1 Z    GLC  0     **** GLC Z 18
    15 ZIC7       53 GROUP        1 Z    ZIC  0     **** ZIC Z 19
@<TRIPOS>SET

