@<TRIPOS>MOLECULE
2ic5_GNP_1_ligand
   45    47     1     0     0
SMALL
NO_CHARGES


@<TRIPOS>ATOM
     1 PG         -15.6510     4.8890   -12.6910 P.3          1 GNP501   0.0000
     2 O1G        -16.3640     5.1450   -14.0100 O.co2        1 GNP501   0.0000
     3 O2G        -14.2880     5.6260   -12.5880 O.co2        1 GNP501  -1.0000
     4 O3G        -15.2620     3.4270   -12.7720 O.co2        1 GNP501  -1.0000
     5 N3B        -16.7110     4.8940   -11.4100 N.3          1 GNP501   0.0000
     6 PB         -17.6890     6.1410   -11.0160 P.3          1 GNP501   0.0000
     7 O1B        -16.9720     7.1000   -10.1450 O.co2        1 GNP501   0.0000
     8 O2B        -18.1890     6.6550   -12.2810 O.co2        1 GNP501  -1.0000
     9 O3A        -18.8620     5.6470   -10.1480 O.3          1 GNP501   0.0000
    10 PA         -20.3520     5.3530   -10.5340 P.3          1 GNP501   0.0000
    11 O1A        -21.1390     6.5810   -10.8430 O.co2        1 GNP501   0.0000
    12 O2A        -20.4200     4.3220   -11.5940 O.co2        1 GNP501  -1.0000
    13 O5'        -21.0100     4.7610    -9.2250 O.3          1 GNP501   0.0000
    14 C5'        -20.3790     3.6330    -8.5880 C.3          1 GNP501   0.0000
    15 C4'        -21.3160     2.9050    -7.6620 C.3          1 GNP501   0.0000
    16 O4'        -21.7180     3.7960    -6.5900 O.3          1 GNP501   0.0000
    17 C3'        -22.6200     2.4020    -8.2640 C.3          1 GNP501   0.0000
    18 O3'        -23.0180     1.2070    -7.6150 O.3          1 GNP501   0.0000
    19 C2'        -23.5810     3.5330    -7.9240 C.3          1 GNP501   0.0000
    20 O2'        -24.9100     3.0990    -7.8530 O.3          1 GNP501   0.0000
    21 C1'        -23.1120     3.9050    -6.5270 C.3          1 GNP501   0.0000
    22 N9         -23.4430     5.2760    -6.1220 N.pl3        1 GNP501   0.0000
    23 C8         -23.1750     6.4150    -6.8180 C.2          1 GNP501   0.0000
    24 N7         -23.5830     7.5120    -6.2210 N.2          1 GNP501   0.0000
    25 C5         -24.1840     7.0510    -5.0520 C.2          1 GNP501   0.0000
    26 C6         -24.8180     7.7620    -4.0030 C.2          1 GNP501   0.0000
    27 O6         -24.9760     8.9810    -3.9100 O.2          1 GNP501   0.0000
    28 N1         -25.2970     6.9260    -2.9980 N.pl3        1 GNP501   0.0000
    29 C2         -25.1810     5.5520    -3.0090 C.2          1 GNP501   0.0000
    30 N2         -25.7220     4.8900    -1.9540 N.pl3        1 GNP501   0.0000
    31 N3         -24.5910     4.8740    -3.9940 N.2          1 GNP501   0.0000
    32 C4         -24.1190     5.6740    -4.9800 C.2          1 GNP501   0.0000
    33 H3B        -17.3189     4.1148   -11.5625 H            1 GNP501   0.0000
    34 H5'1       -19.5939     3.9585    -8.0610 H            1 GNP501   0.0000
    35 H5'2       -20.0662     2.9978    -9.2942 H            1 GNP501   0.0000
    36 H4'        -20.8291     2.1277    -7.2636 H            1 GNP501   0.0000
    37 H3'        -22.5413     2.2731    -9.2525 H            1 GNP501   0.0000
    38 H6         -22.6257     0.4213    -8.0933 H            1 GNP501   0.0000
    39 H2'        -23.4811     4.2995    -8.5584 H            1 GNP501   0.0000
    40 H8         -25.0424     2.3276    -8.4754 H            1 GNP501   0.0000
    41 H1'        -23.4757     3.2546    -5.8601 H            1 GNP501   0.0000
    42 H10        -22.7099     6.4165    -7.7032 H            1 GNP501   0.0000
    43 H11        -25.7553     7.3498    -2.2168 H            1 GNP501   0.0000
    44 H12        -25.6678     3.8925    -1.9086 H            1 GNP501   0.0000
    45 H13        -26.1746     5.4000    -1.2225 H            1 GNP501   0.0000
@<TRIPOS>BOND
     1    1    2      ar
     2    1    3      ar
     3    1    4      ar
     4    1    5       1
     5    5    6       1
     6    6    7      ar
     7    6    8      ar
     8    6    9       1
     9    9   10       1
    10   10   11      ar
    11   10   12      ar
    12   10   13       1
    13   13   14       1
    14   14   15       1
    15   15   16       1
    16   15   17       1
    17   16   21       1
    18   17   18       1
    19   17   19       1
    20   19   20       1
    21   19   21       1
    22   21   22       1
    23   22   23       1
    24   22   32       1
    25   23   24       2
    26   24   25       1
    27   25   26       1
    28   25   32       2
    29   26   27       2
    30   26   28       1
    31   28   29       1
    32   29   30       1
    33   29   31       2
    34   31   32       1
    35   30   45       1
    36   30   44       1
    37    5   33       1
    38   28   43       1
    39   23   42       1
    40   14   34       1
    41   14   35       1
    42   15   36       1
    43   17   37       1
    44   18   38       1
    45   19   39       1
    46   20   40       1
    47   21   41       1
@<TRIPOS>SUBSTRUCTURE
     1 GNP501      1 GROUP             4 A     GNP     0 **** GNP A 501
