2ic5_GNP_1_ligand
  -OEChem-08111718373D

 45 47  0     1  0  0  0  0  0999 V2000
  -22.7099    6.4165   -7.7032 H   0  0  0  0  0  0  0  0  0  0  0  0
  -22.5413    2.2731   -9.2525 H   0  0  0  0  0  0  0  0  0  0  0  0
  -23.4811    4.2995   -8.5584 H   0  0  0  0  0  0  0  0  0  0  0  0
  -20.8291    2.1277   -7.2636 H   0  0  0  0  0  0  0  0  0  0  0  0
  -23.4757    3.2546   -5.8601 H   0  0  0  0  0  0  0  0  0  0  0  0
  -19.5939    3.9585   -8.0610 H   0  0  0  0  0  0  0  0  0  0  0  0
  -20.0662    2.9978   -9.2942 H   0  0  0  0  0  0  0  0  0  0  0  0
  -25.7553    7.3498   -2.2168 H   0  0  0  0  0  0  0  0  0  0  0  0
  -25.6678    3.8925   -1.9086 H   0  0  0  0  0  0  0  0  0  0  0  0
  -26.1746    5.4000   -1.2225 H   0  0  0  0  0  0  0  0  0  0  0  0
  -17.3189    4.1148  -11.5625 H   0  0  0  0  0  0  0  0  0  0  0  0
  -22.6257    0.4213   -8.0933 H   0  0  0  0  0  0  0  0  0  0  0  0
  -25.0424    2.3276   -8.4754 H   0  0  0  0  0  0  0  0  0  0  0  0
  -23.1750    6.4150   -6.8180 C   0  0  0  0  0  0  0  0  0  0  0  0
  -24.1840    7.0510   -5.0520 C   0  0  0  0  0  0  0  0  0  0  0  0
  -24.1190    5.6740   -4.9800 C   0  0  0  0  0  0  0  0  0  0  0  0
  -24.8180    7.7620   -4.0030 C   0  0  0  0  0  0  0  0  0  0  0  0
  -25.1810    5.5520   -3.0090 C   0  0  0  0  0  0  0  0  0  0  0  0
  -22.6200    2.4020   -8.2640 C   0  0  1  0  0  0  0  0  0  0  0  0
  -23.5810    3.5330   -7.9240 C   0  0  2  0  0  0  0  0  0  0  0  0
  -21.3160    2.9050   -7.6620 C   0  0  1  0  0  0  0  0  0  0  0  0
  -23.1120    3.9050   -6.5270 C   0  0  2  0  0  0  0  0  0  0  0  0
  -20.3790    3.6330   -8.5880 C   0  0  1  0  0  0  0  0  0  0  0  0
  -23.5830    7.5120   -6.2210 N   0  0  0  0  0  0  0  0  0  0  0  0
  -24.5910    4.8740   -3.9940 N   0  0  0  0  0  0  0  0  0  0  0  0
  -25.2970    6.9260   -2.9980 N   0  0  0  0  0  0  0  0  0  0  0  0
  -23.4430    5.2760   -6.1220 N   0  0  0  0  0  0  0  0  0  0  0  0
  -25.7220    4.8900   -1.9540 N   0  0  0  0  0  0  0  0  0  0  0  0
  -16.7110    4.8940  -11.4100 N   0  0  1  0  0  0  0  0  0  0  0  0
  -14.2880    5.6260  -12.5880 O   0  5  0  0  0  0  0  0  0  0  0  0
  -15.2620    3.4270  -12.7720 O   0  5  0  0  0  0  0  0  0  0  0  0
  -18.1890    6.6550  -12.2810 O   0  5  0  0  0  0  0  0  0  0  0  0
  -20.4200    4.3220  -11.5940 O   0  5  0  0  0  0  0  0  0  0  0  0
  -24.9760    8.9810   -3.9100 O   0  0  0  0  0  0  0  0  0  0  0  0
  -16.3640    5.1450  -14.0100 O   0  0  0  0  0  0  0  0  0  0  0  0
  -16.9720    7.1000  -10.1450 O   0  0  0  0  0  0  0  0  0  0  0  0
  -21.1390    6.5810  -10.8430 O   0  0  0  0  0  0  0  0  0  0  0  0
  -21.7180    3.7960   -6.5900 O   0  0  0  0  0  0  0  0  0  0  0  0
  -23.0180    1.2070   -7.6150 O   0  0  0  0  0  0  0  0  0  0  0  0
  -24.9100    3.0990   -7.8530 O   0  0  0  0  0  0  0  0  0  0  0  0
  -21.0100    4.7610   -9.2250 O   0  0  0  0  0  0  0  0  0  0  0  0
  -18.8620    5.6470  -10.1480 O   0  0  0  0  0  0  0  0  0  0  0  0
  -15.6510    4.8890  -12.6910 P   0  0  0  0  0  0  0  0  0  0  0  0
  -17.6890    6.1410  -11.0160 P   0  0  2  0  0  0  0  0  0  0  0  0
  -20.3520    5.3530  -10.5340 P   0  0  1  0  0  0  0  0  0  0  0  0
  1 14  1  0  0  0  0
  2 19  1  0  0  0  0
  3 20  1  0  0  0  0
  4 21  1  0  0  0  0
  5 22  1  0  0  0  0
  6 23  1  0  0  0  0
  7 23  1  0  0  0  0
  8 26  1  0  0  0  0
  9 28  1  0  0  0  0
 10 28  1  0  0  0  0
 11 29  1  0  0  0  0
 12 39  1  0  0  0  0
 13 40  1  0  0  0  0
 14 24  2  0  0  0  0
 14 27  1  0  0  0  0
 15 16  2  0  0  0  0
 15 17  1  0  0  0  0
 15 24  1  0  0  0  0
 16 25  1  0  0  0  0
 16 27  1  0  0  0  0
 17 26  1  0  0  0  0
 17 34  2  0  0  0  0
 18 25  2  0  0  0  0
 18 26  1  0  0  0  0
 18 28  1  0  0  0  0
 19 20  1  0  0  0  0
 19 21  1  0  0  0  0
 19 39  1  0  0  0  0
 20 22  1  0  0  0  0
 20 40  1  0  0  0  0
 21 23  1  0  0  0  0
 21 38  1  0  0  0  0
 22 27  1  0  0  0  0
 22 38  1  0  0  0  0
 23 41  1  0  0  0  0
 29 43  1  0  0  0  0
 29 44  1  0  0  0  0
 30 43  1  0  0  0  0
 31 43  1  0  0  0  0
 32 44  1  0  0  0  0
 33 45  1  0  0  0  0
 35 43  2  0  0  0  0
 36 44  2  0  0  0  0
 37 45  2  0  0  0  0
 41 45  1  0  0  0  0
 42 44  1  0  0  0  0
 42 45  1  0  0  0  0
M  CHG  4  30  -1  31  -1  32  -1  33  -1
M  END
> <scpdb_id>
2ic5_1

$$$$
