#    Name: 43973
#    Modification time : Tue Aug  8 21:26:32 2017

@<TRIPOS>MOLECULE
43973
    9     0     6     0     0
SMALL
NO_CHARGES


@<TRIPOS>ATOM
      1 N          -2.8620   69.2670   24.4170 N.am      1 SEL1        0.0000 
      2 N          -4.0240   67.8100   23.0640 N.am      1 SEL1        0.0000 
      3 O          -1.7360   67.7830   22.9920 O.2       2 ALL2        0.0000 
      4 N          -5.9810   70.1240   25.5740 N.am      3 SEP1        0.0000 
      5 N          -3.9280   65.7870   20.6190 N.am      3 SEP1        0.0000 
      6 O          -1.7410   66.0570   20.7050 O.2       4 ALP2        0.0000 
      7 N          -4.4215   69.6955   24.9955 N.am      5 SEC1        0.0000 
      8 N          -3.9760   66.7985   21.8415 N.am      5 SEC1        0.0000 
      9 O          -1.7385   66.9200   21.8485 O.2       6 ALC2        0.0000 
@<TRIPOS>BOND
@<TRIPOS>SUBSTRUCTURE
     1 SEL1        1 GROUP        1 Z    SEL  0     ROOT SEL Z 0
     2 ALL2        3 GROUP        1 Z    ALL  0     **** ALL Z 1
     3 SEP1        4 GROUP        1 Z    SEP  0     **** SEP Z 7
     4 ALP2        6 GROUP        1 Z    ALP  0     **** ALP Z 8
     5 SEC1        7 GROUP        1 Z    SEC  0     **** SEC Z 14
     6 ALC2        9 GROUP        1 Z    ALC  0     **** ALC Z 15
@<TRIPOS>SET

