4iqi_CYT_2_ligand
  -OEChem-08111718373D

 13 13  0     0  0  0  0  0  0999 V2000
    0.3704   69.6480   24.6613 H   0  0  0  0  0  0  0  0  0  0  0  0
    0.2675   67.9295   23.0089 H   0  0  0  0  0  0  0  0  0  0  0  0
   -1.7495   67.0424   22.3202 H   0  0  0  0  0  0  0  0  0  0  0  0
   -0.7775   71.1451   26.0816 H   0  0  0  0  0  0  0  0  0  0  0  0
   -2.5085   71.1587   26.1388 H   0  0  0  0  0  0  0  0  0  0  0  0
   -0.5110   69.2910   24.3520 C   0  0  0  0  0  0  0  0  0  0  0  0
   -0.5810   68.2860   23.4000 C   0  0  0  0  0  0  0  0  0  0  0  0
   -1.6950   69.7830   24.8590 C   0  0  0  0  0  0  0  0  0  0  0  0
   -2.9090   68.2760   23.4890 C   0  0  0  0  0  0  0  0  0  0  0  0
   -2.8620   69.2670   24.4170 N   0  0  0  0  0  0  0  0  0  0  0  0
   -1.7360   67.7830   22.9920 N   0  0  0  0  0  0  0  0  0  0  0  0
   -1.6570   70.7830   25.7730 N   0  0  0  0  0  0  0  0  0  0  0  0
   -4.0240   67.8100   23.0640 O   0  0  0  0  0  0  0  0  0  0  0  0
  1  6  1  0  0  0  0
  2  7  1  0  0  0  0
  3 11  1  0  0  0  0
  4 12  1  0  0  0  0
  5 12  1  0  0  0  0
  6  7  2  0  0  0  0
  6  8  1  0  0  0  0
  7 11  1  0  0  0  0
  8 10  2  0  0  0  0
  8 12  1  0  0  0  0
  9 10  1  0  0  0  0
  9 11  1  0  0  0  0
  9 13  2  0  0  0  0
M  END
> <scpdb_id>
4iqi_2

$$$$
