@<TRIPOS>MOLECULE
4iqi_CYT_2_ligand
   13    13     1     0     0
SMALL
NO_CHARGES


@<TRIPOS>ATOM
     1 N3          -2.8620    69.2670    24.4170 N.2          1 CYT301   0.0000
     2 C4          -1.6950    69.7830    24.8590 C.2          1 CYT301   0.0000
     3 N1          -1.7360    67.7830    22.9920 N.pl3        1 CYT301   0.0000
     4 C2          -2.9090    68.2760    23.4890 C.2          1 CYT301   0.0000
     5 O2          -4.0240    67.8100    23.0640 O.2          1 CYT301   0.0000
     6 N4          -1.6570    70.7830    25.7730 N.pl3        1 CYT301   0.0000
     7 C5          -0.5110    69.2910    24.3520 C.2          1 CYT301   0.0000
     8 C6          -0.5810    68.2860    23.4000 C.2          1 CYT301   0.0000
     9 H1          -0.7775    71.1451    26.0816 H            1 CYT301   0.0000
    10 H2          -2.5085    71.1587    26.1388 H            1 CYT301   0.0000
    11 H3           0.3704    69.6480    24.6613 H            1 CYT301   0.0000
    12 H4           0.2675    67.9295    23.0089 H            1 CYT301   0.0000
    13 H5          -1.7495    67.0424    22.3202 H            1 CYT301   0.0000
@<TRIPOS>BOND
     1    1    2       2
     2    1    4       1
     3    2    6       1
     4    2    7       1
     5    3    4       1
     6    3    8       1
     7    4    5       2
     8    7    8       2
     9    8   12       1
    10    6    9       1
    11    6   10       1
    12    7   11       1
    13    3   13       1
@<TRIPOS>SUBSTRUCTURE
     1 CYT301      1 GROUP             4 B     CYT     0 **** CYT B 301
