#    Name: 16934
#    Modification time : Wed Aug  9 00:31:11 2017

@<TRIPOS>MOLECULE
16934
   34     0     9     0     0
SMALL
NO_CHARGES


@<TRIPOS>ATOM
      1 N          48.0840  -12.7400   12.3550 N.am      1 SEL1        0.0000 
      2 N          44.2570  -10.6930   13.8330 N.am      1 SEL1        0.0000 
      3 N          46.5470  -13.8200    8.5750 N.am      1 SEL1        0.0000 
      4 N          47.1680  -14.1690    3.3380 N.am      1 SEL1        0.0000 
      5 O          46.1260  -11.6900   13.0860 O.2       2 ALL2        0.0000 
      6 O          47.6920  -12.2180    6.6570 O.2       2 ALL2        0.0000 
      7 O          44.6700  -12.4750    5.0620 O.2       2 ALL2        0.0000 
      8 CA         44.7740  -12.2750    8.1890 C.3       3 GLL5        0.0000 
      9 CA         45.9800  -13.4390    3.4660 C.3       3 GLL5        0.0000 
     10 CA         45.6890  -13.3990    7.5360 C.3       3 GLL5        0.0000 
     11 N          48.5180  -14.8730   10.5190 N.am      4 SEP1        0.0000 
     12 N          42.9060  -10.9320   16.3010 N.am      4 SEP1        0.0000 
     13 N          46.9830  -16.6700    8.9650 N.am      4 SEP1        0.0000 
     14 N          44.4020  -14.8110    1.4900 N.am      4 SEP1        0.0000 
     15 O          46.7270  -11.5500   15.9140 O.2       5 ALP2        0.0000 
     16 O          49.7940  -14.0900    5.5660 O.2       5 ALP2        0.0000 
     17 O          43.4430  -12.1510    2.3400 O.2       5 ALP2        0.0000 
     18 CA         42.7720  -15.7940   10.0800 C.3       6 GLP5        0.0000 
     19 CA         47.3050  -14.3570    0.0700 C.3       6 GLP5        0.0000 
     20 CA         42.3770  -14.9940    2.8500 C.3       6 GLP5        0.0000 
     21 CA         45.0660  -17.5860    4.5560 C.3       6 GLP5        0.0000 
     22 CA         45.7410  -16.6710    6.8280 C.3       6 GLP5        0.0000 
     23 N          48.3010  -13.8065   11.4370 N.am      7 SEC1        0.0000 
     24 N          43.5815  -10.8125   15.0670 N.am      7 SEC1        0.0000 
     25 N          46.7650  -15.2450    8.7700 N.am      7 SEC1        0.0000 
     26 N          45.7850  -14.4900    2.4140 N.am      7 SEC1        0.0000 
     27 O          46.4265  -11.6200   14.5000 O.2       8 ALC2        0.0000 
     28 O          48.7430  -13.1540    6.1115 O.2       8 ALC2        0.0000 
     29 O          44.0565  -12.3130    3.7010 O.2       8 ALC2        0.0000 
     30 CA         43.7730  -14.0345    9.1345 C.3       9 GLC5        0.0000 
     31 CA         46.6425  -13.8980    1.7680 C.3       9 GLC5        0.0000 
     32 CA         44.1785  -14.2165    3.1580 C.3       9 GLC5        0.0000 
     33 CA         45.5230  -15.5125    4.0110 C.3       9 GLC5        0.0000 
     34 CA         45.9693  -14.9667    6.8730 C.3       9 GLC5        0.0000 
@<TRIPOS>BOND
@<TRIPOS>SUBSTRUCTURE
     1 SEL1        1 GROUP        1 Z    SEL  0     ROOT SEL Z 0
     2 ALL2        5 GROUP        1 Z    ALL  0     **** ALL Z 1
     3 GLL5        8 GROUP        1 Z    GLL  0     **** GLL Z 4
     4 SEP1       11 GROUP        1 Z    SEP  0     **** SEP Z 7
     5 ALP2       15 GROUP        1 Z    ALP  0     **** ALP Z 8
     6 GLP5       18 GROUP        1 Z    GLP  0     **** GLP Z 11
     7 SEC1       23 GROUP        1 Z    SEC  0     **** SEC Z 14
     8 ALC2       27 GROUP        1 Z    ALC  0     **** ALC Z 15
     9 GLC5       30 GROUP        1 Z    GLC  0     **** GLC Z 18
@<TRIPOS>SET

