2obx_INI_9_ligand
  -OEChem-08111718373D

 35 35  0     1  0  0  0  0  0999 V2000
   44.2214  -11.8701    7.4606 H   0  0  0  0  0  0  0  0  0  0  0  0
   44.1743  -12.7185    8.8550 H   0  0  0  0  0  0  0  0  0  0  0  0
   45.8582  -12.8388    2.6754 H   0  0  0  0  0  0  0  0  0  0  0  0
   45.2000  -14.0609    3.5357 H   0  0  0  0  0  0  0  0  0  0  0  0
   45.1021  -14.1699    7.2886 H   0  0  0  0  0  0  0  0  0  0  0  0
   46.4857  -11.6747    4.5785 H   0  0  0  0  0  0  0  0  0  0  0  0
   47.1719  -13.9926    6.1212 H   0  0  0  0  0  0  0  0  0  0  0  0
   47.3544  -12.2496   10.1229 H   0  0  0  0  0  0  0  0  0  0  0  0
   46.3539  -11.8425   14.0477 H   0  0  0  0  0  0  0  0  0  0  0  0
   45.8928  -10.4121    8.3840 H   0  0  0  0  0  0  0  0  0  0  0  0
   47.2834  -14.7605    4.1360 H   0  0  0  0  0  0  0  0  0  0  0  0
   46.0821  -13.7155    9.4542 H   0  0  0  0  0  0  0  0  0  0  0  0
   44.1973  -12.1569    4.2402 H   0  0  0  0  0  0  0  0  0  0  0  0
   48.5901  -12.6482    6.5657 H   0  0  0  0  0  0  0  0  0  0  0  0
   44.5660  -10.7890   11.2900 C   0  0  0  0  0  0  0  0  0  0  0  0
   45.5450  -11.2780   10.2990 C   0  0  0  0  0  0  0  0  0  0  0  0
   44.9200  -11.0250   12.8060 C   0  0  0  0  0  0  0  0  0  0  0  0
   47.0200  -12.1490   12.1430 C   0  0  0  0  0  0  0  0  0  0  0  0
   44.7740  -12.2750    8.1890 C   0  0  1  0  0  0  0  0  0  0  0  0
   45.9800  -13.4390    3.4660 C   0  0  2  0  0  0  0  0  0  0  0  0
   45.6890  -13.3990    7.5360 C   0  0  1  0  0  0  0  0  0  0  0  0
   46.1100  -12.5770    4.7900 C   0  0  2  0  0  0  0  0  0  0  0  0
   46.7060  -13.1260    6.3000 C   0  0  1  0  0  0  0  0  0  0  0  0
   46.6970  -11.9210   10.8010 N   0  0  0  0  0  0  0  0  0  0  0  0
   46.1260  -11.6900   13.0860 N   0  0  0  0  0  0  0  0  0  0  0  0
   45.4830  -11.1770    8.8810 N   0  0  0  0  0  0  0  0  0  0  0  0
   43.3130  -10.1130   10.9850 N   0  3  0  0  0  0  0  0  0  0  0  0
   43.0200   -9.9260    9.8350 O   0  5  0  0  0  0  0  0  0  0  0  0
   44.2570  -10.6930   13.8330 O   0  0  0  0  0  0  0  0  0  0  0  0
   48.0840  -12.7400   12.3550 O   0  0  0  0  0  0  0  0  0  0  0  0
   42.5750   -9.7490   11.8410 O   0  0  0  0  0  0  0  0  0  0  0  0
   47.1680  -14.1690    3.3380 O   0  0  0  0  0  0  0  0  0  0  0  0
   46.5470  -13.8200    8.5750 O   0  0  0  0  0  0  0  0  0  0  0  0
   44.6700  -12.4750    5.0620 O   0  0  0  0  0  0  0  0  0  0  0  0
   47.6920  -12.2180    6.6570 O   0  0  0  0  0  0  0  0  0  0  0  0
  1 19  1  0  0  0  0
  2 19  1  0  0  0  0
  3 20  1  0  0  0  0
  4 20  1  0  0  0  0
  5 21  1  0  0  0  0
  6 22  1  0  0  0  0
  7 23  1  0  0  0  0
  8 24  1  0  0  0  0
  9 25  1  0  0  0  0
 10 26  1  0  0  0  0
 11 32  1  0  0  0  0
 12 33  1  0  0  0  0
 13 34  1  0  0  0  0
 14 35  1  0  0  0  0
 15 16  2  0  0  0  0
 15 17  1  0  0  0  0
 15 27  1  0  0  0  0
 16 24  1  0  0  0  0
 16 26  1  0  0  0  0
 17 25  1  0  0  0  0
 17 29  2  0  0  0  0
 18 24  1  0  0  0  0
 18 25  1  0  0  0  0
 18 30  2  0  0  0  0
 19 21  1  0  0  0  0
 19 26  1  0  0  0  0
 20 22  1  0  0  0  0
 20 32  1  0  0  0  0
 21 23  1  0  0  0  0
 21 33  1  0  0  0  0
 22 23  1  0  0  0  0
 22 34  1  0  0  0  0
 23 35  1  0  0  0  0
 27 28  1  0  0  0  0
 27 31  2  0  0  0  0
M  CHG  2  27   1  28  -1
M  END
> <scpdb_id>
2obx_9

$$$$
