@<TRIPOS>MOLECULE
2obx_INI_9_ligand
   35    35     1     0     0
SMALL
NO_CHARGES


@<TRIPOS>ATOM
     1 N1          46.6970   -11.9210    10.8010 N.pl3        1 INI209   0.0000
     2 C2          47.0200   -12.1490    12.1430 C.2          1 INI209   0.0000
     3 O2          48.0840   -12.7400    12.3550 O.2          1 INI209   0.0000
     4 N3          46.1260   -11.6900    13.0860 N.pl3        1 INI209   0.0000
     5 C4          44.9200   -11.0250    12.8060 C.2          1 INI209   0.0000
     6 O4          44.2570   -10.6930    13.8330 O.2          1 INI209   0.0000
     7 C5          44.5660   -10.7890    11.2900 C.2          1 INI209   0.0000
     8 N5          43.3130   -10.1130    10.9850 N.2          1 INI209   1.0000
     9 O51         42.5750    -9.7490    11.8410 O.co2        1 INI209   0.0000
    10 O52         43.0200    -9.9260     9.8350 O.co2        1 INI209  -1.0000
    11 C6          45.5450   -11.2780    10.2990 C.2          1 INI209   0.0000
    12 N7          45.4830   -11.1770     8.8810 N.pl3        1 INI209   0.0000
    13 C8          44.7740   -12.2750     8.1890 C.3          1 INI209   0.0000
    14 C9          45.6890   -13.3990     7.5360 C.3          1 INI209   0.0000
    15 O9          46.5470   -13.8200     8.5750 O.3          1 INI209   0.0000
    16 C10         46.7060   -13.1260     6.3000 C.3          1 INI209   0.0000
    17 O10         47.6920   -12.2180     6.6570 O.3          1 INI209   0.0000
    18 C11         46.1100   -12.5770     4.7900 C.3          1 INI209   0.0000
    19 O11         44.6700   -12.4750     5.0620 O.3          1 INI209   0.0000
    20 C12         45.9800   -13.4390     3.4660 C.3          1 INI209   0.0000
    21 O12         47.1680   -14.1690     3.3380 O.3          1 INI209   0.0000
    22 H1          47.3544   -12.2496    10.1229 H            1 INI209   0.0000
    23 H2          46.3539   -11.8425    14.0477 H            1 INI209   0.0000
    24 H3          45.8928   -10.4121     8.3840 H            1 INI209   0.0000
    25 H4          44.2214   -11.8701     7.4606 H            1 INI209   0.0000
    26 H5          44.1743   -12.7185     8.8550 H            1 INI209   0.0000
    27 H6          45.1021   -14.1699     7.2886 H            1 INI209   0.0000
    28 H7          46.0821   -13.7155     9.4542 H            1 INI209   0.0000
    29 H8          47.1719   -13.9926     6.1212 H            1 INI209   0.0000
    30 H9          48.5901   -12.6482     6.5657 H            1 INI209   0.0000
    31 H10         46.4857   -11.6747     4.5785 H            1 INI209   0.0000
    32 H11         44.1973   -12.1569     4.2402 H            1 INI209   0.0000
    33 H12         45.8582   -12.8388     2.6754 H            1 INI209   0.0000
    34 H13         45.2000   -14.0609     3.5357 H            1 INI209   0.0000
    35 H14         47.2834   -14.7605     4.1360 H            1 INI209   0.0000
@<TRIPOS>BOND
     1    1    2       1
     2    1   11       1
     3    2    3       2
     4    2    4       1
     5    4    5       1
     6    5    6       2
     7    5    7       1
     8    7    8       1
     9    7   11       2
    10    8    9      ar
    11    8   10      ar
    12   11   12       1
    13   12   13       1
    14   13   14       1
    15   14   15       1
    16   14   16       1
    17   16   17       1
    18   16   18       1
    19   18   19       1
    20   18   20       1
    21   20   21       1
    22    1   22       1
    23    4   23       1
    24   12   24       1
    25   13   25       1
    26   13   26       1
    27   14   27       1
    28   15   28       1
    29   16   29       1
    30   17   30       1
    31   18   31       1
    32   19   32       1
    33   20   33       1
    34   20   34       1
    35   21   35       1
@<TRIPOS>SUBSTRUCTURE
     1 INI209      1 GROUP             4 I     INI     0 **** INI I 209
