#    Name: 27591
#    Modification time : Wed Aug  9 00:58:16 2017

@<TRIPOS>MOLECULE
27591
   52     0    12     0     0
SMALL
NO_CHARGES


@<TRIPOS>ATOM
      1 N         -30.2800    7.1350  -13.2780 N.am      1 SEL1        0.0000 
      2 N         -28.5000   12.1110   -8.0910 N.am      1 SEL1        0.0000 
      3 N         -31.0030   12.1060   -7.2900 N.am      1 SEL1        0.0000 
      4 O         -30.0150    4.8960  -15.4330 O.2       2 ALL2        0.0000 
      5 O         -32.7170   12.1550  -14.5040 O.2       2 ALL2        0.0000 
      6 O         -34.1040   11.9960  -12.3110 O.2       2 ALL2        0.0000 
      7 CA        -32.9830   11.1000  -12.3980 C.3       3 GLL5        0.0000 
      8 CA        -28.0770   -1.4940   -8.2690 C.3       3 GLL5        0.0000 
      9 CA        -31.6050   11.2750  -10.2860 C.3       3 GLL5        0.0000 
     10 CA        -32.5700   10.9110  -13.8360 C.3       3 GLL5        0.0000 
     11 CA        -29.0160    5.3030   -8.1840 C.3       3 GLL5        0.0000 
     12 CA        -27.1230   -1.4290  -10.4870 C.3       3 GLL5        0.0000 
     13 CA        -28.2190   -0.1240   -8.3000 C.3       3 GLL5        0.0000 
     14 CA        -28.7410    0.5880   -7.2920 C.3       3 GLL5        0.0000 
     15 CZ        -28.2204    3.1574   -9.4370 C.ar      4 PHL6        0.0000 
     16 N         -27.3390    6.6620  -12.6200 N.am      5 SEP1        0.0000 
     17 N         -26.5020   10.7030   -6.7190 N.am      5 SEP1        0.0000 
     18 N         -32.3620   10.0570   -5.6910 N.am      5 SEP1        0.0000 
     19 N         -32.7660   14.4710   -6.6140 N.am      5 SEP1        0.0000 
     20 N         -30.2510   11.6230   -4.6620 N.am      5 SEP1        0.0000 
     21 O         -29.7280    3.2430  -13.2320 O.2       6 ALP2        0.0000 
     22 O         -28.4670    2.7760  -17.5330 O.2       6 ALP2        0.0000 
     23 O         -35.2270   12.2000  -15.4960 O.2       6 ALP2        0.0000 
     24 O         -35.8930   10.6330  -14.0390 O.2       6 ALP2        0.0000 
     25 CA        -35.4220    9.1080  -10.0410 C.3       7 GLP5        0.0000 
     26 CA        -32.2750   -2.6440   -8.6440 C.3       7 GLP5        0.0000 
     27 CA        -34.4620   10.0410   -7.8230 C.3       7 GLP5        0.0000 
     28 CA        -34.7750    7.7770  -14.0980 C.3       7 GLP5        0.0000 
     29 CA        -25.2650    5.5620   -7.1220 C.3       7 GLP5        0.0000 
     30 CA        -23.5620   -1.9700  -12.0810 C.3       7 GLP5        0.0000 
     31 CA        -25.2920   -0.0910   -5.7130 C.3       7 GLP5        0.0000 
     32 CA        -31.7530    1.1790   -8.9290 C.3       7 GLP5        0.0000 
     33 CZ        -24.3575    3.5787   -9.0365 C.ar      8 PHP6        0.0000 
     34 N         -28.8095    6.8985  -12.9490 N.am      9 SEC1        0.0000 
     35 N         -27.5010   11.4070   -7.4050 N.am      9 SEC1        0.0000 
     36 N         -31.6825   11.0815   -6.4905 N.am      9 SEC1        0.0000 
     37 N         -31.8845   13.2885   -6.9520 N.am      9 SEC1        0.0000 
     38 N         -30.6270   11.8645   -5.9760 N.am      9 SEC1        0.0000 
     39 O         -29.8715    4.0695  -14.3325 O.2      10 ALC2        0.0000 
     40 O         -29.2410    3.8360  -16.4830 O.2      10 ALC2        0.0000 
     41 O         -33.9720   12.1775  -15.0000 O.2      10 ALC2        0.0000 
     42 O         -34.9985   11.3145  -13.1750 O.2      10 ALC2        0.0000 
     43 O         -34.6655   12.0980  -13.9035 O.2      10 ALC2        0.0000 
     44 CA        -34.2025   10.1040  -11.2195 C.3      11 GLC5        0.0000 
     45 CA        -30.1760   -2.0690   -8.4565 C.3      11 GLC5        0.0000 
     46 CA        -33.0335   10.6580   -9.0545 C.3      11 GLC5        0.0000 
     47 CA        -33.7758    9.3912  -13.6075 C.3      11 GLC5        0.0000 
     48 CA        -27.1770    5.7281   -7.6494 C.3      11 GLC5        0.0000 
     49 CA        -25.3833   -1.3545  -11.2915 C.3      11 GLC5        0.0000 
     50 CA        -26.8682   -0.1008   -6.7506 C.3      11 GLC5        0.0000 
     51 CA        -30.0650    0.7926   -8.5008 C.3      11 GLC5        0.0000 
     52 CZ        -26.2889    3.3680   -9.2368 C.ar     12 PHC6        0.0000 
@<TRIPOS>BOND
@<TRIPOS>SUBSTRUCTURE
     1 SEL1        1 GROUP        1 Z    SEL  0     ROOT SEL Z 0
     2 ALL2        4 GROUP        1 Z    ALL  0     **** ALL Z 1
     3 GLL5        7 GROUP        1 Z    GLL  0     **** GLL Z 4
     4 PHL6       15 GROUP        1 Z    PHL  0     **** PHL Z 6
     5 SEP1       16 GROUP        1 Z    SEP  0     **** SEP Z 7
     6 ALP2       21 GROUP        1 Z    ALP  0     **** ALP Z 8
     7 GLP5       25 GROUP        1 Z    GLP  0     **** GLP Z 11
     8 PHP6       33 GROUP        1 Z    PHP  0     **** PHP Z 13
     9 SEC1       34 GROUP        1 Z    SEC  0     **** SEC Z 14
    10 ALC2       39 GROUP        1 Z    ALC  0     **** ALC Z 15
    11 GLC5       44 GROUP        1 Z    GLC  0     **** GLC Z 18
    12 PHC6       52 GROUP        1 Z    PHC  0     **** PHC Z 20
@<TRIPOS>SET

