3ies_M24_1_ligand
  -OEChem-08111718373D

 63 68  0     1  0  0  0  0  0999 V2000
  -26.7265   -1.9051  -11.2719 H   0  0  0  0  0  0  0  0  0  0  0  0
  -27.3888   -3.1368   -9.3348 H   0  0  0  0  0  0  0  0  0  0  0  0
  -30.2749    6.2164   -5.2942 H   0  0  0  0  0  0  0  0  0  0  0  0
  -27.0307    0.4792  -11.3268 H   0  0  0  0  0  0  0  0  0  0  0  0
  -29.5017    4.2775   -6.4526 H   0  0  0  0  0  0  0  0  0  0  0  0
  -30.1242    8.3501   -6.3297 H   0  0  0  0  0  0  0  0  0  0  0  0
  -28.3761   -2.0147   -7.4694 H   0  0  0  0  0  0  0  0  0  0  0  0
  -28.5718    6.6241   -9.7443 H   0  0  0  0  0  0  0  0  0  0  0  0
  -31.0631    8.1528  -18.1817 H   0  0  0  0  0  0  0  0  0  0  0  0
  -30.4203    8.6737  -11.8639 H   0  0  0  0  0  0  0  0  0  0  0  0
  -33.2147   10.2180  -11.9877 H   0  0  0  0  0  0  0  0  0  0  0  0
  -33.0769   10.1750  -14.2847 H   0  0  0  0  0  0  0  0  0  0  0  0
  -31.7246   12.6617  -11.8326 H   0  0  0  0  0  0  0  0  0  0  0  0
  -30.6053   11.1060  -14.5050 H   0  0  0  0  0  0  0  0  0  0  0  0
  -31.6002   10.2791  -10.1957 H   0  0  0  0  0  0  0  0  0  0  0  0
  -32.3718   11.6530   -9.7673 H   0  0  0  0  0  0  0  0  0  0  0  0
  -29.8343    4.6175  -14.4897 H   0  0  0  0  0  0  0  0  0  0  0  0
  -29.9702    4.2222  -16.1706 H   0  0  0  0  0  0  0  0  0  0  0  0
  -34.8744   11.6168  -12.8235 H   0  0  0  0  0  0  0  0  0  0  0  0
  -33.5855   12.1666  -14.9996 H   0  0  0  0  0  0  0  0  0  0  0  0
  -27.1230   -1.4290  -10.4870 C   0  0  0  0  0  0  0  0  0  0  0  0
  -27.5140   -2.1450   -9.3600 C   0  0  0  0  0  0  0  0  0  0  0  0
  -29.9080    6.2970   -6.2210 C   0  0  0  0  0  0  0  0  0  0  0  0
  -27.2860   -0.0490  -10.5170 C   0  0  0  0  0  0  0  0  0  0  0  0
  -29.4780    5.1740   -6.8950 C   0  0  0  0  0  0  0  0  0  0  0  0
  -29.8300    7.5370   -6.8320 C   0  0  0  0  0  0  0  0  0  0  0  0
  -28.0770   -1.4940   -8.2690 C   0  0  0  0  0  0  0  0  0  0  0  0
  -28.9310    6.5500   -8.8140 C   0  0  0  0  0  0  0  0  0  0  0  0
  -30.8850    7.8810  -17.2360 C   0  0  0  0  0  0  0  0  0  0  0  0
  -30.4860    8.3880  -12.8200 C   0  0  0  0  0  0  0  0  0  0  0  0
  -29.0160    5.3030   -8.1840 C   0  0  0  0  0  0  0  0  0  0  0  0
  -27.8070    0.5730   -9.4060 C   0  0  0  0  0  0  0  0  0  0  0  0
  -29.3490    7.6750   -8.1350 C   0  0  0  0  0  0  0  0  0  0  0  0
  -30.4320    7.1890  -14.6300 C   0  0  0  0  0  0  0  0  0  0  0  0
  -28.2190   -0.1240   -8.3000 C   0  0  0  0  0  0  0  0  0  0  0  0
  -30.7600    8.4780  -14.9700 C   0  0  0  0  0  0  0  0  0  0  0  0
  -30.3230    6.1970  -15.7140 C   0  0  0  0  0  0  0  0  0  0  0  0
  -28.5770    4.0720   -8.8740 C   0  0  0  0  0  0  0  0  0  0  0  0
  -28.0300    2.0150   -9.3780 C   0  0  0  0  0  0  0  0  0  0  0  0
  -29.3110    9.0710   -8.7260 C   0  0  0  0  0  0  0  0  0  0  0  0
  -32.9830   11.1000  -12.3980 C   0  0  1  0  0  0  0  0  0  0  0  0
  -32.5700   10.9110  -13.8360 C   0  0  2  0  0  0  0  0  0  0  0  0
  -31.7240   11.6650  -11.7510 C   0  0  1  0  0  0  0  0  0  0  0  0
  -31.0760   10.6270  -13.7640 C   0  0  2  0  0  0  0  0  0  0  0  0
  -31.6050   11.2750  -10.2860 C   0  0  2  0  0  0  0  0  0  0  0  0
  -30.9680    8.8080  -16.2720 N   0  0  0  0  0  0  0  0  0  0  0  0
  -30.5710    6.5980  -16.9790 N   0  0  0  0  0  0  0  0  0  0  0  0
  -30.2800    7.1350  -13.2780 N   0  0  0  0  0  0  0  0  0  0  0  0
  -28.4910    2.7990   -8.3740 N   0  0  0  0  0  0  0  0  0  0  0  0
  -28.1660    4.0820  -10.1370 N   0  0  0  0  0  0  0  0  0  0  0  0
  -30.7910    9.1840  -13.8450 N   0  0  0  0  0  0  0  0  0  0  0  0
  -30.0150    4.8960  -15.4330 N   0  0  0  0  0  0  0  0  0  0  0  0
  -31.0030   12.1060   -7.2900 O   0  5  0  0  0  0  0  0  0  0  0  0
  -28.7160    9.3800   -9.7440 O   0  0  0  0  0  0  0  0  0  0  0  0
  -28.5000   12.1110   -8.0910 O   0  0  0  0  0  0  0  0  0  0  0  0
  -27.8380    2.8190  -10.4220 O   0  0  0  0  0  0  0  0  0  0  0  0
  -30.6180   11.1190  -12.5050 O   0  0  0  0  0  0  0  0  0  0  0  0
  -34.1040   11.9960  -12.3110 O   0  0  0  0  0  0  0  0  0  0  0  0
  -32.7170   12.1550  -14.5040 O   0  0  0  0  0  0  0  0  0  0  0  0
  -30.0290   10.0780   -8.0060 O   0  0  0  0  0  0  0  0  0  0  0  0
  -30.3700   11.8180   -9.8030 O   0  0  0  0  0  0  0  0  0  0  0  0
  -28.7410    0.5880   -7.2920 F   0  0  0  0  0  0  0  0  0  0  0  0
  -29.9490   11.6760   -8.2560 P   0  0  1  0  0  0  0  0  0  0  0  0
  1 21  1  0  0  0  0
  2 22  1  0  0  0  0
  3 23  1  0  0  0  0
  4 24  1  0  0  0  0
  5 25  1  0  0  0  0
  6 26  1  0  0  0  0
  7 27  1  0  0  0  0
  8 28  1  0  0  0  0
  9 29  1  0  0  0  0
 10 30  1  0  0  0  0
 11 41  1  0  0  0  0
 12 42  1  0  0  0  0
 13 43  1  0  0  0  0
 14 44  1  0  0  0  0
 15 45  1  0  0  0  0
 16 45  1  0  0  0  0
 17 52  1  0  0  0  0
 18 52  1  0  0  0  0
 19 58  1  0  0  0  0
 20 59  1  0  0  0  0
 21 22  2  0  0  0  0
 21 24  1  0  0  0  0
 22 27  1  0  0  0  0
 23 25  2  0  0  0  0
 23 26  1  0  0  0  0
 24 32  2  0  0  0  0
 25 31  1  0  0  0  0
 26 33  2  0  0  0  0
 27 35  2  0  0  0  0
 28 31  2  0  0  0  0
 28 33  1  0  0  0  0
 29 46  1  0  0  0  0
 29 47  2  0  0  0  0
 30 48  2  0  0  0  0
 30 51  1  0  0  0  0
 31 38  1  0  0  0  0
 32 35  1  0  0  0  0
 32 39  1  0  0  0  0
 33 40  1  0  0  0  0
 34 36  1  0  0  0  0
 34 37  2  0  0  0  0
 34 48  1  0  0  0  0
 35 62  1  0  0  0  0
 36 46  2  0  0  0  0
 36 51  1  0  0  0  0
 37 47  1  0  0  0  0
 37 52  1  0  0  0  0
 38 49  1  0  0  0  0
 38 50  2  0  0  0  0
 39 49  2  0  0  0  0
 39 56  1  0  0  0  0
 40 54  2  0  0  0  0
 40 60  1  0  0  0  0
 41 42  1  0  0  0  0
 41 43  1  0  0  0  0
 41 58  1  0  0  0  0
 42 44  1  0  0  0  0
 42 59  1  0  0  0  0
 43 45  1  0  0  0  0
 43 57  1  0  0  0  0
 44 51  1  0  0  0  0
 44 57  1  0  0  0  0
 45 61  1  0  0  0  0
 50 56  1  0  0  0  0
 53 63  1  0  0  0  0
 55 63  2  0  0  0  0
 60 63  1  0  0  0  0
 61 63  1  0  0  0  0
M  CHG  1  53  -1
M  END
> <scpdb_id>
3ies_1

$$$$
