@<TRIPOS>MOLECULE
3ies_M24_1_ligand
   63    68     1     0     0
SMALL
NO_CHARGES


@<TRIPOS>ATOM
     1 P          -29.9490    11.6760    -8.2560 P.3          1 M24552   0.0000
     2 N1         -30.5710     6.5980   -16.9790 N.ar         1 M24552   0.0000
     3 C2         -30.8850     7.8810   -17.2360 C.ar         1 M24552   0.0000
     4 N3         -30.9680     8.8080   -16.2720 N.ar         1 M24552   0.0000
     5 C4         -30.7600     8.4780   -14.9700 C.ar         1 M24552   0.0000
     6 C5         -30.4320     7.1890   -14.6300 C.ar         1 M24552   0.0000
     7 C6         -30.3230     6.1970   -15.7140 C.ar         1 M24552   0.0000
     8 N6         -30.0150     4.8960   -15.4330 N.pl3        1 M24552   0.0000
     9 N7         -30.2800     7.1350   -13.2780 N.2          1 M24552   0.0000
    10 C8         -30.4860     8.3880   -12.8200 C.2          1 M24552   0.0000
    11 N9         -30.7910     9.1840   -13.8450 N.pl3        1 M24552   0.0000
    12 C1'        -31.0760    10.6270   -13.7640 C.3          1 M24552   0.0000
    13 O1P        -28.5000    12.1110    -8.0910 O.co2        1 M24552   0.0000
    14 C2'        -32.5700    10.9110   -13.8360 C.3          1 M24552   0.0000
    15 O2'        -32.7170    12.1550   -14.5040 O.3          1 M24552   0.0000
    16 C24        -29.3110     9.0710    -8.7260 C.2          1 M24552   0.0000
    17 O25        -28.7160     9.3800    -9.7440 O.2          1 M24552   0.0000
    18 C26        -29.3490     7.6750    -8.1350 C.ar         1 M24552   0.0000
    19 C27        -29.8300     7.5370    -6.8320 C.ar         1 M24552   0.0000
    20 C28        -29.9080     6.2970    -6.2210 C.ar         1 M24552   0.0000
    21 C29        -29.4780     5.1740    -6.8950 C.ar         1 M24552   0.0000
    22 O2P        -30.0290    10.0780    -8.0060 O.3          1 M24552   0.0000
    23 C3'        -32.9830    11.1000   -12.3980 C.3          1 M24552   0.0000
    24 O3'        -34.1040    11.9960   -12.3110 O.3          1 M24552   0.0000
    25 C30        -29.0160     5.3030    -8.1840 C.ar         1 M24552   0.0000
    26 C31        -28.9310     6.5500    -8.8140 C.ar         1 M24552   0.0000
    27 C32        -28.5770     4.0720    -8.8740 C.2          1 M24552   0.0000
    28 N33        -28.1660     4.0820   -10.1370 N.2          1 M24552   0.0000
    29 O34        -27.8380     2.8190   -10.4220 O.2          1 M24552   0.0000
    30 C35        -28.0300     2.0150    -9.3780 C.2          1 M24552   0.0000
    31 N36        -28.4910     2.7990    -8.3740 N.2          1 M24552   0.0000
    32 C37        -27.8070     0.5730    -9.4060 C.ar         1 M24552   0.0000
    33 C38        -27.2860    -0.0490   -10.5170 C.ar         1 M24552   0.0000
    34 C39        -27.1230    -1.4290   -10.4870 C.ar         1 M24552   0.0000
    35 O3P        -31.0030    12.1060    -7.2900 O.co2        1 M24552  -1.0000
    36 C4'        -31.7240    11.6650   -11.7510 C.3          1 M24552   0.0000
    37 O4'        -30.6180    11.1190   -12.5050 O.3          1 M24552   0.0000
    38 C40        -27.5140    -2.1450    -9.3600 C.ar         1 M24552   0.0000
    39 C41        -28.0770    -1.4940    -8.2690 C.ar         1 M24552   0.0000
    40 C42        -28.2190    -0.1240    -8.3000 C.ar         1 M24552   0.0000
    41 F43        -28.7410     0.5880    -7.2920 F            1 M24552   0.0000
    42 C5'        -31.6050    11.2750   -10.2860 C.3          1 M24552   0.0000
    43 O5'        -30.3700    11.8180    -9.8030 O.3          1 M24552   0.0000
    44 H1         -31.0631     8.1528   -18.1817 H            1 M24552   0.0000
    45 H2         -29.8343     4.6175   -14.4897 H            1 M24552   0.0000
    46 H3         -29.9702     4.2222   -16.1706 H            1 M24552   0.0000
    47 H4         -30.4203     8.6737   -11.8639 H            1 M24552   0.0000
    48 H1'        -30.6053    11.1060   -14.5050 H            1 M24552   0.0000
    49 H2'        -33.0769    10.1750   -14.2847 H            1 M24552   0.0000
    50 H7         -33.5855    12.1666   -14.9996 H            1 M24552   0.0000
    51 H8         -30.1242     8.3501    -6.3297 H            1 M24552   0.0000
    52 H9         -30.2749     6.2164    -5.2942 H            1 M24552   0.0000
    53 H10        -29.5017     4.2775    -6.4526 H            1 M24552   0.0000
    54 H3'        -33.2147    10.2180   -11.9877 H            1 M24552   0.0000
    55 H12        -34.8744    11.6168   -12.8235 H            1 M24552   0.0000
    56 H13        -28.5718     6.6241    -9.7443 H            1 M24552   0.0000
    57 H14        -27.0307     0.4792   -11.3268 H            1 M24552   0.0000
    58 H15        -26.7265    -1.9051   -11.2719 H            1 M24552   0.0000
    59 H4'        -31.7246    12.6617   -11.8326 H            1 M24552   0.0000
    60 H17        -27.3888    -3.1368    -9.3348 H            1 M24552   0.0000
    61 H18        -28.3761    -2.0147    -7.4694 H            1 M24552   0.0000
    62 H5'1       -31.6002    10.2791   -10.1957 H            1 M24552   0.0000
    63 H5'2       -32.3718    11.6530    -9.7673 H            1 M24552   0.0000
@<TRIPOS>BOND
     1    1   13      ar
     2    1   22       1
     3    1   35      ar
     4    1   43       1
     5    2    3      ar
     6    2    7      ar
     7    3    4      ar
     8    4    5      ar
     9    5    6      ar
    10    5   11       1
    11    6    7      ar
    12    6    9       1
    13    7    8       1
    14    9   10       2
    15   10   11       1
    16   11   12       1
    17   12   14       1
    18   12   37       1
    19   14   15       1
    20   14   23       1
    21   16   17       2
    22   16   18       1
    23   16   22       1
    24   18   19      ar
    25   18   26      ar
    26   19   20      ar
    27   20   21      ar
    28   21   25      ar
    29   23   24       1
    30   23   36       1
    31   25   26      ar
    32   25   27       1
    33   27   28       2
    34   27   31       1
    35   28   29       1
    36   29   30       1
    37   30   31       2
    38   30   32       1
    39   32   33      ar
    40   32   40      ar
    41   33   34      ar
    42   34   38      ar
    43   36   37       1
    44   36   42       1
    45   38   39      ar
    46   39   40      ar
    47   40   41       1
    48   42   43       1
    49    3   44       1
    50    8   45       1
    51    8   46       1
    52   10   47       1
    53   12   48       1
    54   42   63       1
    55   14   49       1
    56   15   50       1
    57   19   51       1
    58   20   52       1
    59   21   53       1
    60   23   54       1
    61   24   55       1
    62   26   56       1
    63   33   57       1
    64   34   58       1
    65   36   59       1
    66   38   60       1
    67   39   61       1
    68   42   62       1
@<TRIPOS>SUBSTRUCTURE
     1 M24552      1 GROUP             4 A     M24     0 **** M24 A 552
