#    Name: 19766
#    Modification time : Tue Aug  8 20:04:58 2017

@<TRIPOS>MOLECULE
19766
   59     0    12     0     0
SMALL
NO_CHARGES


@<TRIPOS>ATOM
      1 N         -15.9690    0.3370   -2.0160 N.am      1 SEL1        0.0000 
      2 N         -18.7070   -5.8960    1.0290 N.am      1 SEL1        0.0000 
      3 N         -19.3240   -7.5680   -0.7550 N.am      1 SEL1        0.0000 
      4 N         -22.3640   -6.5690    2.6160 N.am      1 SEL1        0.0000 
      5 N         -20.9180   -8.5190    1.8090 N.am      1 SEL1        0.0000 
      6 N         -27.3370   -9.1060    2.2500 N.am      1 SEL1        0.0000 
      7 O         -26.5200   -1.3400   -1.0630 O.2       2 ALL2        0.0000 
      8 NZ        -15.9690    0.3370   -2.0160 N.4       3 LYL3        0.0000 
      9 NZ        -15.6470   -1.6620   -0.4060 N.4       3 LYL3        0.0000 
     10 CA        -20.5040   -1.9310   -1.3380 C.3       4 GLL5        0.0000 
     11 CA        -18.9090   -4.8960   -2.1680 C.3       4 GLL5        0.0000 
     12 CA        -23.9600   -7.1010   -0.1060 C.3       4 GLL5        0.0000 
     13 CA        -26.3550   -6.5960   -0.4950 C.3       4 GLL5        0.0000 
     14 CA        -25.6000   -8.9760   -0.2640 C.3       4 GLL5        0.0000 
     15 CA        -25.5510   -7.5320    1.8030 C.3       4 GLL5        0.0000 
     16 CA        -18.8400   -3.3790   -2.2850 C.3       4 GLL5        0.0000 
     17 N         -17.7350    1.6090   -3.5320 N.am      5 SEP1        0.0000 
     18 N         -16.7710   -4.0600    1.4080 N.am      5 SEP1        0.0000 
     19 N         -16.6370   -7.6870    1.7620 N.am      5 SEP1        0.0000 
     20 N         -19.5700   -9.6590   -2.5970 N.am      5 SEP1        0.0000 
     21 N         -20.2160   -5.9110    4.5040 N.am      5 SEP1        0.0000 
     22 N         -19.0680   -8.8910    3.7000 N.am      5 SEP1        0.0000 
     23 N         -20.2870  -10.5840   -0.0280 N.am      5 SEP1        0.0000 
     24 N         -26.0710  -11.7990    3.0420 N.am      5 SEP1        0.0000 
     25 O         -28.6700    0.3820   -2.3690 O.2       6 ALP2        0.0000 
     26 NZ        -17.7350    1.6090   -3.5320 N.4       7 LYP3        0.0000 
     27 NZ        -13.9370   -4.0540    0.8000 N.4       7 LYP3        0.0000 
     28 CA        -18.6250   -0.5080   -4.8110 C.3       8 GLP5        0.0000 
     29 CA        -17.6040   -8.6270   -3.7060 C.3       8 GLP5        0.0000 
     30 CA        -22.0160   -7.0160   -3.1290 C.3       8 GLP5        0.0000 
     31 CA        -24.5830   -6.4830   -4.2060 C.3       8 GLP5        0.0000 
     32 CA        -26.1740  -11.6160   -2.6200 C.3       8 GLP5        0.0000 
     33 CA        -23.1500  -11.5130    2.2340 C.3       8 GLP5        0.0000 
     34 CA        -24.1240   -7.8360   -4.1180 C.3       8 GLP5        0.0000 
     35 CA        -23.7330  -11.0510    3.5750 C.3       8 GLP5        0.0000 
     36 CA        -24.1350   -7.6140    5.5180 C.3       8 GLP5        0.0000 
     37 CA        -22.5190   -5.6820   -3.2080 C.3       8 GLP5        0.0000 
     38 N         -16.8520    0.9730   -2.7740 N.am      9 SEC1        0.0000 
     39 N         -17.7390   -4.9780    1.2185 N.am      9 SEC1        0.0000 
     40 N         -17.6720   -6.7915    1.3955 N.am      9 SEC1        0.0000 
     41 N         -19.4470   -8.6135   -1.6760 N.am      9 SEC1        0.0000 
     42 N         -21.2900   -6.2400    3.5600 N.am      9 SEC1        0.0000 
     43 N         -19.9930   -8.7050    2.7545 N.am      9 SEC1        0.0000 
     44 N         -20.6025   -9.5515    0.8905 N.am      9 SEC1        0.0000 
     45 N         -26.7040  -10.4525    2.6460 N.am      9 SEC1        0.0000 
     46 O         -27.5950   -0.4790   -1.7160 O.2      10 ALC2        0.0000 
     47 NZ        -16.8520    0.9730   -2.7740 N.4      11 LYC3        0.0000 
     48 NZ        -14.7920   -2.8580    0.1970 N.4      11 LYC3        0.0000 
     49 CA        -19.5645   -1.2195   -3.0745 C.3      12 GLC5        0.0000 
     50 CA        -18.2565   -6.7615   -2.9370 C.3      12 GLC5        0.0000 
     51 CA        -22.9880   -7.0585   -1.6175 C.3      12 GLC5        0.0000 
     52 CA        -25.4690   -6.5395   -2.3505 C.3      12 GLC5        0.0000 
     53 CA        -25.8870  -10.2960   -1.4420 C.3      12 GLC5        0.0000 
     54 CA        -24.3750  -10.2445    0.9850 C.3      12 GLC5        0.0000 
     55 CA        -24.8620   -8.4060   -2.1910 C.3      12 GLC5        0.0000 
     56 CA        -24.6420   -9.2915    2.6890 C.3      12 GLC5        0.0000 
     57 CA        -24.8430   -7.5730    3.6605 C.3      12 GLC5        0.0000 
     58 CA        -18.5950   -1.7490   -3.2430 C.3      12 GLC5        0.0000 
     59 CA        -20.6967   -4.9097   -2.7172 C.3      12 GLC5        0.0000 
@<TRIPOS>BOND
@<TRIPOS>SUBSTRUCTURE
     1 SEL1        1 GROUP        1 Z    SEL  0     ROOT SEL Z 0
     2 ALL2        7 GROUP        1 Z    ALL  0     **** ALL Z 1
     3 LYL3        8 GROUP        1 Z    LYL  0     **** LYL Z 2
     4 GLL5       10 GROUP        1 Z    GLL  0     **** GLL Z 4
     5 SEP1       17 GROUP        1 Z    SEP  0     **** SEP Z 7
     6 ALP2       25 GROUP        1 Z    ALP  0     **** ALP Z 8
     7 LYP3       26 GROUP        1 Z    LYP  0     **** LYP Z 9
     8 GLP5       28 GROUP        1 Z    GLP  0     **** GLP Z 11
     9 SEC1       38 GROUP        1 Z    SEC  0     **** SEC Z 14
    10 ALC2       46 GROUP        1 Z    ALC  0     **** ALC Z 15
    11 LYC3       47 GROUP        1 Z    LYC  0     **** LYC Z 16
    12 GLC5       49 GROUP        1 Z    GLC  0     **** GLC Z 18
@<TRIPOS>SET

