2vxk_COA_1_ligand
  -OEChem-08111718373D

 66 68  0     1  0  0  0  0  0999 V2000
  -23.8720    1.5507   -3.0455 H   0  0  0  0  0  0  0  0  0  0  0  0
  -22.1937   -3.8171    0.0267 H   0  0  0  0  0  0  0  0  0  0  0  0
  -17.5932   -3.1140   -0.5638 H   0  0  0  0  0  0  0  0  0  0  0  0
  -19.8598   -3.1649    0.2404 H   0  0  0  0  0  0  0  0  0  0  0  0
  -18.2966   -3.1420   -3.0903 H   0  0  0  0  0  0  0  0  0  0  0  0
  -20.2906   -0.9983   -1.6287 H   0  0  0  0  0  0  0  0  0  0  0  0
  -27.2953   -6.8624   -0.2831 H   0  0  0  0  0  0  0  0  0  0  0  0
  -26.2001   -5.6542   -0.1966 H   0  0  0  0  0  0  0  0  0  0  0  0
  -26.2040   -6.6623   -1.4813 H   0  0  0  0  0  0  0  0  0  0  0  0
  -26.5293   -9.2667   -0.0362 H   0  0  0  0  0  0  0  0  0  0  0  0
  -25.4758   -9.0037   -1.2559 H   0  0  0  0  0  0  0  0  0  0  0  0
  -24.9423   -9.5906    0.1716 H   0  0  0  0  0  0  0  0  0  0  0  0
  -29.6020   -6.2130    3.0528 H   0  0  0  0  0  0  0  0  0  0  0  0
  -29.6445   -7.5507    2.1171 H   0  0  0  0  0  0  0  0  0  0  0  0
  -29.2146   -7.6665    3.6883 H   0  0  0  0  0  0  0  0  0  0  0  0
  -18.0071   -5.2668   -1.9465 H   0  0  0  0  0  0  0  0  0  0  0  0
  -19.2315   -5.2944   -3.0266 H   0  0  0  0  0  0  0  0  0  0  0  0
  -23.8161   -7.1927   -1.0913 H   0  0  0  0  0  0  0  0  0  0  0  0
  -23.8318   -6.1462    0.1622 H   0  0  0  0  0  0  0  0  0  0  0  0
  -24.9140   -8.1938    2.1983 H   0  0  0  0  0  0  0  0  0  0  0  0
  -26.6165   -2.1736   -0.5191 H   0  0  0  0  0  0  0  0  0  0  0  0
  -27.3323   -0.8258   -1.3383 H   0  0  0  0  0  0  0  0  0  0  0  0
  -27.3855   -5.9536    2.4655 H   0  0  0  0  0  0  0  0  0  0  0  0
  -19.4560   -0.4056    0.2108 H   0  0  0  0  0  0  0  0  0  0  0  0
  -24.2863   -6.1842    2.5763 H   0  0  0  0  0  0  0  0  0  0  0  0
  -23.9410    0.6900   -2.5410 C   0  0  0  0  0  0  0  0  0  0  0  0
  -22.6360   -3.0310   -0.4050 C   0  0  0  0  0  0  0  0  0  0  0  0
  -24.1530   -1.6490   -1.1030 C   0  0  0  0  0  0  0  0  0  0  0  0
  -22.9090   -1.1700   -1.5180 C   0  0  0  0  0  0  0  0  0  0  0  0
  -25.2850   -0.9060   -1.4280 C   0  0  0  0  0  0  0  0  0  0  0  0
  -26.9760   -7.9260    2.2080 C   0  0  0  0  0  0  0  0  0  0  0  0
  -18.2900   -2.6010   -1.0650 C   0  0  1  0  0  0  0  0  0  0  0  0
  -19.5490   -2.3350   -0.2230 C   0  0  2  0  0  0  0  0  0  0  0  0
  -18.8400   -3.3790   -2.2850 C   0  0  1  0  0  0  0  0  0  0  0  0
  -20.5040   -1.9310   -1.3380 C   0  0  2  0  0  0  0  0  0  0  0  0
  -26.3550   -6.5960   -0.4950 C   0  0  0  0  0  0  0  0  0  0  0  0
  -25.6000   -8.9760   -0.2640 C   0  0  0  0  0  0  0  0  0  0  0  0
  -29.1680   -7.0950    2.8690 C   0  0  0  0  0  0  0  0  0  0  0  0
  -18.9090   -4.8960   -2.1680 C   0  0  2  0  0  0  0  0  0  0  0  0
  -23.9600   -7.1010   -0.1060 C   0  0  1  0  0  0  0  0  0  0  0  0
  -25.5510   -7.5320    1.8030 C   0  0  1  0  0  0  0  0  0  0  0  0
  -25.3730   -7.5390    0.2420 C   0  0  1  0  0  0  0  0  0  0  0  0
  -22.8350   -0.0020   -2.2370 N   0  0  0  0  0  0  0  0  0  0  0  0
  -25.1380    0.2250   -2.1670 N   0  0  0  0  0  0  0  0  0  0  0  0
  -23.9620   -2.7820   -0.4120 N   0  0  0  0  0  0  0  0  0  0  0  0
  -22.0020   -2.0410   -1.0790 N   0  0  0  0  0  0  0  0  0  0  0  0
  -26.5200   -1.3400   -1.0630 N   0  0  0  0  0  0  0  0  0  0  0  0
  -27.7580   -6.8810    2.4990 N   0  0  0  0  0  0  0  0  0  0  0  0
  -15.6470   -1.6620   -0.4060 O   0  5  0  0  0  0  0  0  0  0  0  0
  -15.7040   -2.0520   -2.9350 O   0  5  0  0  0  0  0  0  0  0  0  0
  -19.3240   -7.5680   -0.7550 O   0  5  0  0  0  0  0  0  0  0  0  0
  -20.9180   -8.5190    1.8090 O   0  5  0  0  0  0  0  0  0  0  0  0
  -27.3370   -9.1060    2.2500 O   0  0  0  0  0  0  0  0  0  0  0  0
  -15.9690    0.3370   -2.0160 O   0  0  0  0  0  0  0  0  0  0  0  0
  -18.7070   -5.8960    1.0290 O   0  0  0  0  0  0  0  0  0  0  0  0
  -22.3640   -6.5690    2.6160 O   0  0  0  0  0  0  0  0  0  0  0  0
  -20.2400   -2.8740   -2.4800 O   0  0  0  0  0  0  0  0  0  0  0  0
  -19.3590   -1.2790    0.6880 O   0  0  0  0  0  0  0  0  0  0  0  0
  -25.2580   -6.2370    2.3460 O   0  0  0  0  0  0  0  0  0  0  0  0
  -17.7920   -1.3930   -1.6070 O   0  0  0  0  0  0  0  0  0  0  0  0
  -19.8350   -5.1810   -1.1110 O   0  0  0  0  0  0  0  0  0  0  0  0
  -23.0180   -7.9230    0.5920 O   0  0  0  0  0  0  0  0  0  0  0  0
  -21.1240   -6.3920    0.4800 O   0  0  0  0  0  0  0  0  0  0  0  0
  -16.1780   -1.1890   -1.8180 P   0  0  0  0  0  0  0  0  0  0  0  0
  -19.6210   -6.3230   -0.0110 P   0  0  1  0  0  0  0  0  0  0  0  0
  -21.8570   -7.3890    1.5200 P   0  0  2  0  0  0  0  0  0  0  0  0
  1 26  1  0  0  0  0
  2 27  1  0  0  0  0
  3 32  1  0  0  0  0
  4 33  1  0  0  0  0
  5 34  1  0  0  0  0
  6 35  1  0  0  0  0
  7 36  1  0  0  0  0
  8 36  1  0  0  0  0
  9 36  1  0  0  0  0
 10 37  1  0  0  0  0
 11 37  1  0  0  0  0
 12 37  1  0  0  0  0
 13 38  1  0  0  0  0
 14 38  1  0  0  0  0
 15 38  1  0  0  0  0
 16 39  1  0  0  0  0
 17 39  1  0  0  0  0
 18 40  1  0  0  0  0
 19 40  1  0  0  0  0
 20 41  1  0  0  0  0
 21 47  1  0  0  0  0
 22 47  1  0  0  0  0
 23 48  1  0  0  0  0
 24 58  1  0  0  0  0
 25 59  1  0  0  0  0
 26 43  1  0  0  0  0
 26 44  2  0  0  0  0
 27 45  2  0  0  0  0
 27 46  1  0  0  0  0
 28 29  1  0  0  0  0
 28 30  2  0  0  0  0
 28 45  1  0  0  0  0
 29 43  2  0  0  0  0
 29 46  1  0  0  0  0
 30 44  1  0  0  0  0
 30 47  1  0  0  0  0
 31 41  1  0  0  0  0
 31 48  1  0  0  0  0
 31 53  2  0  0  0  0
 32 33  1  0  0  0  0
 32 34  1  0  0  0  0
 32 60  1  0  0  0  0
 33 35  1  0  0  0  0
 33 58  1  0  0  0  0
 34 39  1  0  0  0  0
 34 57  1  0  0  0  0
 35 46  1  0  0  0  0
 35 57  1  0  0  0  0
 36 42  1  0  0  0  0
 37 42  1  0  0  0  0
 38 48  1  0  0  0  0
 39 61  1  0  0  0  0
 40 42  1  0  0  0  0
 40 62  1  0  0  0  0
 41 42  1  0  0  0  0
 41 59  1  0  0  0  0
 49 64  1  0  0  0  0
 50 64  1  0  0  0  0
 51 65  1  0  0  0  0
 52 66  1  0  0  0  0
 54 64  2  0  0  0  0
 55 65  2  0  0  0  0
 56 66  2  0  0  0  0
 60 64  1  0  0  0  0
 61 65  1  0  0  0  0
 62 66  1  0  0  0  0
 63 65  1  0  0  0  0
 63 66  1  0  0  0  0
M  CHG  4  49  -1  50  -1  51  -1  52  -1
M  END
> <scpdb_id>
2vxk_1

$$$$
