@<TRIPOS>MOLECULE
2vxk_COA_1_ligand
   66    68     1     0     0
SMALL
NO_CHARGES


@<TRIPOS>ATOM
     1 N1A        -25.1380     0.2250    -2.1670 N.ar         1 COA1193   0.0000
     2 C2A        -23.9410     0.6900    -2.5410 C.ar         1 COA1193   0.0000
     3 N3A        -22.8350    -0.0020    -2.2370 N.ar         1 COA1193   0.0000
     4 C4A        -22.9090    -1.1700    -1.5180 C.ar         1 COA1193   0.0000
     5 C5A        -24.1530    -1.6490    -1.1030 C.ar         1 COA1193   0.0000
     6 C6A        -25.2850    -0.9060    -1.4280 C.ar         1 COA1193   0.0000
     7 N6A        -26.5200    -1.3400    -1.0630 N.pl3        1 COA1193   0.0000
     8 N7A        -23.9620    -2.7820    -0.4120 N.2          1 COA1193   0.0000
     9 C8A        -22.6360    -3.0310    -0.4050 C.2          1 COA1193   0.0000
    10 N9A        -22.0020    -2.0410    -1.0790 N.pl3        1 COA1193   0.0000
    11 C1B        -20.5040    -1.9310    -1.3380 C.3          1 COA1193   0.0000
    12 C2B        -19.5490    -2.3350    -0.2230 C.3          1 COA1193   0.0000
    13 O2B        -19.3590    -1.2790     0.6880 O.3          1 COA1193   0.0000
    14 C3B        -18.2900    -2.6010    -1.0650 C.3          1 COA1193   0.0000
    15 O3B        -17.7920    -1.3930    -1.6070 O.3          1 COA1193   0.0000
    16 P3B        -16.1780    -1.1890    -1.8180 P.3          1 COA1193   0.0000
    17 O7A        -15.9690     0.3370    -2.0160 O.co2        1 COA1193   0.0000
    18 O8A        -15.6470    -1.6620    -0.4060 O.co2        1 COA1193  -1.0000
    19 O9A        -15.7040    -2.0520    -2.9350 O.co2        1 COA1193  -1.0000
    20 C4B        -18.8400    -3.3790    -2.2850 C.3          1 COA1193   0.0000
    21 O4B        -20.2400    -2.8740    -2.4800 O.3          1 COA1193   0.0000
    22 C5B        -18.9090    -4.8960    -2.1680 C.3          1 COA1193   0.0000
    23 O5B        -19.8350    -5.1810    -1.1110 O.3          1 COA1193   0.0000
    24 P1A        -19.6210    -6.3230    -0.0110 P.3          1 COA1193   0.0000
    25 O1A        -18.7070    -5.8960     1.0290 O.co2        1 COA1193   0.0000
    26 O2A        -19.3240    -7.5680    -0.7550 O.co2        1 COA1193  -1.0000
    27 O3A        -21.1240    -6.3920     0.4800 O.3          1 COA1193   0.0000
    28 P2A        -21.8570    -7.3890     1.5200 P.3          1 COA1193   0.0000
    29 O4A        -22.3640    -6.5690     2.6160 O.co2        1 COA1193   0.0000
    30 O5A        -20.9180    -8.5190     1.8090 O.co2        1 COA1193  -1.0000
    31 O6A        -23.0180    -7.9230     0.5920 O.3          1 COA1193   0.0000
    32 CBP        -25.3730    -7.5390     0.2420 C.3          1 COA1193   0.0000
    33 CCP        -23.9600    -7.1010    -0.1060 C.3          1 COA1193   0.0000
    34 CDP        -26.3550    -6.5960    -0.4950 C.3          1 COA1193   0.0000
    35 CEP        -25.6000    -8.9760    -0.2640 C.3          1 COA1193   0.0000
    36 CAP        -25.5510    -7.5320     1.8030 C.3          1 COA1193   0.0000
    37 OAP        -25.2580    -6.2370     2.3460 O.3          1 COA1193   0.0000
    38 C9P        -26.9760    -7.9260     2.2080 C.2          1 COA1193   0.0000
    39 O9P        -27.3370    -9.1060     2.2500 O.2          1 COA1193   0.0000
    40 N8P        -27.7580    -6.8810     2.4990 N.am         1 COA1193   0.0000
    41 C7P        -29.1680    -7.0950     2.8690 C.3          1 COA1193   0.0000
    42 H2A        -23.8720     1.5507    -3.0455 H            1 COA1193   0.0000
    43 H6A1       -26.6165    -2.1736    -0.5191 H            1 COA1193   0.0000
    44 H6A2       -27.3323    -0.8258    -1.3383 H            1 COA1193   0.0000
    45 H8A        -22.1937    -3.8171     0.0267 H            1 COA1193   0.0000
    46 H1B        -20.2906    -0.9983    -1.6287 H            1 COA1193   0.0000
    47 H2B        -19.8598    -3.1649     0.2404 H            1 COA1193   0.0000
    48 H7         -19.4560    -0.4056     0.2108 H            1 COA1193   0.0000
    49 H3B        -17.5932    -3.1140    -0.5638 H            1 COA1193   0.0000
    50 H4B        -18.2966    -3.1420    -3.0903 H            1 COA1193   0.0000
    51 H5B1       -18.0071    -5.2668    -1.9465 H            1 COA1193   0.0000
    52 H5B2       -19.2315    -5.2944    -3.0266 H            1 COA1193   0.0000
    53 HCP1       -23.8161    -7.1927    -1.0913 H            1 COA1193   0.0000
    54 HCP2       -23.8318    -6.1462     0.1622 H            1 COA1193   0.0000
    55 HDP1       -27.2953    -6.8624    -0.2831 H            1 COA1193   0.0000
    56 HDP2       -26.2001    -5.6542    -0.1966 H            1 COA1193   0.0000
    57 HDP3       -26.2040    -6.6623    -1.4813 H            1 COA1193   0.0000
    58 HEP1       -26.5293    -9.2667    -0.0362 H            1 COA1193   0.0000
    59 HEP2       -25.4758    -9.0037    -1.2559 H            1 COA1193   0.0000
    60 HEP3       -24.9423    -9.5906     0.1716 H            1 COA1193   0.0000
    61 HAP        -24.9140    -8.1938     2.1983 H            1 COA1193   0.0000
    62 H21        -24.2863    -6.1842     2.5763 H            1 COA1193   0.0000
    63 H8P        -27.3855    -5.9536     2.4655 H            1 COA1193   0.0000
    64 H7P1       -29.6020    -6.2130     3.0528 H            1 COA1193   0.0000
    65 H7P2       -29.6445    -7.5507     2.1171 H            1 COA1193   0.0000
    66 H7P3       -29.2146    -7.6665     3.6883 H            1 COA1193   0.0000
@<TRIPOS>BOND
     1    1    2      ar
     2    1    6      ar
     3    2    3      ar
     4    3    4      ar
     5    4    5      ar
     6    4   10       1
     7    5    6      ar
     8    5    8       1
     9    6    7       1
    10    8    9       2
    11    9   10       1
    12   10   11       1
    13   11   12       1
    14   11   21       1
    15   12   13       1
    16   12   14       1
    17   14   15       1
    18   14   20       1
    19   15   16       1
    20   16   17      ar
    21   16   18      ar
    22   16   19      ar
    23   20   21       1
    24   20   22       1
    25   22   23       1
    26   23   24       1
    27   24   25      ar
    28   24   26      ar
    29   24   27       1
    30   27   28       1
    31   28   29      ar
    32   28   30      ar
    33   28   31       1
    34   31   33       1
    35   32   33       1
    36   32   34       1
    37   32   35       1
    38   32   36       1
    39   36   37       1
    40   36   38       1
    41   38   39       2
    42   38   40      am
    43   40   41       1
    44    2   42       1
    45    7   43       1
    46    7   44       1
    47    9   45       1
    48   11   46       1
    49   12   47       1
    50   13   48       1
    51   14   49       1
    52   41   66       1
    53   41   65       1
    54   20   50       1
    55   22   51       1
    56   22   52       1
    57   41   64       1
    58   40   63       1
    59   33   53       1
    60   33   54       1
    61   34   55       1
    62   34   56       1
    63   34   57       1
    64   35   58       1
    65   35   59       1
    66   35   60       1
    67   36   61       1
    68   37   62       1
@<TRIPOS>SUBSTRUCTURE
     1 COA1193     1 GROUP             4 A     COA     0 **** COA A1193
