#    Name: 15111
#    Modification time : Wed Aug  9 01:36:57 2017

@<TRIPOS>MOLECULE
15111
   90     0    15     0     0
SMALL
NO_CHARGES


@<TRIPOS>ATOM
      1 N          15.0810   -9.8060   32.1920 N.am      1 SEL1        0.0000 
      2 N          13.0880   -8.3040   32.8280 N.am      1 SEL1        0.0000 
      3 N           8.3200  -12.5540   34.3110 N.am      1 SEL1        0.0000 
      4 N          14.9780   -7.4020   28.5460 N.am      1 SEL1        0.0000 
      5 N          15.7930   -6.9190   30.8910 N.am      1 SEL1        0.0000 
      6 N          13.5840   -6.0010   30.0360 N.am      1 SEL1        0.0000 
      7 N          11.6240   -3.3250   29.2220 N.am      1 SEL1        0.0000 
      8 N          20.3300   -0.5050   28.1750 N.am      1 SEL1        0.0000 
      9 N           7.3410  -12.1160   28.2180 N.am      1 SEL1        0.0000 
     10 N           7.4530  -14.6490   27.8150 N.am      1 SEL1        0.0000 
     11 N           6.8060  -13.7260   30.0570 N.am      1 SEL1        0.0000 
     12 O           7.0270  -14.4210   36.3610 O.2       2 ALL2        0.0000 
     13 O          11.6240   -3.3250   29.2220 O.2       2 ALL2        0.0000 
     14 O          12.7460   -1.0270   30.2090 O.2       2 ALL2        0.0000 
     15 O          19.1270    0.6030   29.7410 O.2       2 ALL2        0.0000 
     16 NZ          7.4530  -14.6490   27.8150 N.4       3 LYL3        0.0000 
     17 NZ          6.8060  -13.7260   30.0570 N.4       3 LYL3        0.0000 
     18 CA         13.2280  -11.4680   30.6680 C.3       4 GLL5        0.0000 
     19 CA         10.9120  -11.9220   29.5520 C.3       4 GLL5        0.0000 
     20 CA         13.2760   -5.2710   31.2200 C.3       4 GLL5        0.0000 
     21 CA         13.3570   -3.8040   30.9610 C.3       4 GLL5        0.0000 
     22 CA         13.6440   -1.9250   29.5820 C.3       4 GLL5        0.0000 
     23 CA         18.2690   -1.4790   28.7950 C.3       4 GLL5        0.0000 
     24 CA         13.0050   -3.2930   29.5530 C.3       4 GLL5        0.0000 
     25 CA         17.4560   -3.6360   27.8220 C.3       4 GLL5        0.0000 
     26 CZ         17.2872   -2.5115   28.6972 C.ar      5 PHL6        0.0000 
     27 N          16.8740  -11.0550   30.3550 N.am      6 SEP1        0.0000 
     28 N          15.8390  -11.0890   34.7130 N.am      6 SEP1        0.0000 
     29 N          10.0090   -7.1880   32.7690 N.am      6 SEP1        0.0000 
     30 N          15.1130   -6.7860   34.1790 N.am      6 SEP1        0.0000 
     31 N           7.5374  -10.2645   36.3767 N.am      6 SEP1        0.0000 
     32 N          14.0840   -5.7610   26.7120 N.am      6 SEP1        0.0000 
     33 N          14.8800  -10.0420   27.4600 N.am      6 SEP1        0.0000 
     34 N          17.6430   -6.9820   32.7480 N.am      6 SEP1        0.0000 
     35 N          10.2700   -1.9060   27.0460 N.am      6 SEP1        0.0000 
     36 N          22.9062    0.9409   28.6506 N.am      6 SEP1        0.0000 
     37 N           5.2510  -10.2140   28.6670 N.am      6 SEP1        0.0000 
     38 N           4.8890  -15.6010   27.0820 N.am      6 SEP1        0.0000 
     39 N           5.2920  -11.7650   31.2530 N.am      6 SEP1        0.0000 
     40 N           6.7570  -16.5040   30.3970 N.am      6 SEP1        0.0000 
     41 O           7.2249  -12.0301   37.7331 O.2       7 ALP2        0.0000 
     42 O           6.1050  -16.2160   38.6080 O.2       7 ALP2        0.0000 
     43 O          10.0930   -5.2300   30.5460 O.2       7 ALP2        0.0000 
     44 O          13.7830    1.2730   31.1710 O.2       7 ALP2        0.0000 
     45 O          21.2350    2.3020   31.0310 O.2       7 ALP2        0.0000 
     46 O          17.3490    0.6660   32.0170 O.2       7 ALP2        0.0000 
     47 NZ          4.8890  -15.6010   27.0820 N.4       8 LYP3        0.0000 
     48 NZ          6.1770  -17.2360   31.3360 N.4       8 LYP3        0.0000 
     49 CA         12.1680   -8.8650   27.2090 C.3       9 GLP5        0.0000 
     50 CA          9.6940   -6.5930   30.3690 C.3       9 GLP5        0.0000 
     51 CA         13.7150   -2.9220   35.1350 C.3       9 GLP5        0.0000 
     52 CA         13.0810    1.1680   26.6990 C.3       9 GLP5        0.0000 
     53 CA         17.6820   -3.9030   32.4570 C.3       9 GLP5        0.0000 
     54 CA         13.7790  -12.3350   34.2520 C.3       9 GLP5        0.0000 
     55 CA         12.4180   -2.5770   26.0620 C.3       9 GLP5        0.0000 
     56 CA         19.7680   -6.2800   26.8110 C.3       9 GLP5        0.0000 
     57 CZ         20.1623   -3.4675   30.9910 C.ar     10 PHP6        0.0000 
     58 N          15.9775  -10.4305   31.2735 N.am     11 SEC1        0.0000 
     59 N          15.4600  -10.4475   33.4525 N.am     11 SEC1        0.0000 
     60 N          11.5485   -7.7460   32.7985 N.am     11 SEC1        0.0000 
     61 N          14.1005   -7.5450   33.5035 N.am     11 SEC1        0.0000 
     62 N           7.9287  -11.4093   35.3439 N.am     11 SEC1        0.0000 
     63 N          14.5310   -6.5815   27.6290 N.am     11 SEC1        0.0000 
     64 N          14.9290   -8.7220   28.0030 N.am     11 SEC1        0.0000 
     65 N          16.7180   -6.9505   31.8195 N.am     11 SEC1        0.0000 
     66 N          13.8340   -5.8810   28.3740 N.am     11 SEC1        0.0000 
     67 N          10.9470   -2.6155   28.1340 N.am     11 SEC1        0.0000 
     68 N          21.6181    0.2179   28.4128 N.am     11 SEC1        0.0000 
     69 N           6.2960  -11.1650   28.4425 N.am     11 SEC1        0.0000 
     70 N           6.1710  -15.1250   27.4485 N.am     11 SEC1        0.0000 
     71 N           6.0490  -12.7455   30.6550 N.am     11 SEC1        0.0000 
     72 N           6.7815  -15.1150   30.2270 N.am     11 SEC1        0.0000 
     73 O           7.1259  -13.2255   37.0470 O.2      12 ALC2        0.0000 
     74 O           6.5660  -15.3185   37.4845 O.2      12 ALC2        0.0000 
     75 O          10.8585   -4.2775   29.8840 O.2      12 ALC2        0.0000 
     76 O          13.2645    0.1230   30.6900 O.2      12 ALC2        0.0000 
     77 O          20.1810    1.4525   30.3860 O.2      12 ALC2        0.0000 
     78 O          18.2380    0.6345   30.8790 O.2      12 ALC2        0.0000 
     79 NZ          6.1710  -15.1250   27.4485 N.4      13 LYC3        0.0000 
     80 NZ          6.4915  -15.4810   30.6965 N.4      13 LYC3        0.0000 
     81 CA         12.6980  -10.1665   28.9385 C.3      14 GLC5        0.0000 
     82 CA         11.5400  -10.3935   28.3805 C.3      14 GLC5        0.0000 
     83 CA         11.4850   -5.9320   30.7945 C.3      14 GLC5        0.0000 
     84 CA         13.5360   -3.3630   33.0480 C.3      14 GLC5        0.0000 
     85 CA         13.3625   -0.3785   28.1405 C.3      14 GLC5        0.0000 
     86 CA         17.9755   -2.6910   30.6260 C.3      14 GLC5        0.0000 
     87 CA         13.2182  -12.1408   32.3967 C.3      14 GLC5        0.0000 
     88 CA         12.8712   -2.5930   27.8148 C.3      14 GLC5        0.0000 
     89 CA         18.8608   -4.7023   27.3352 C.3      14 GLC5        0.0000 
     90 CZ         18.7248   -2.9895   29.8441 C.ar     15 PHC6        0.0000 
@<TRIPOS>BOND
@<TRIPOS>SUBSTRUCTURE
     1 SEL1        1 GROUP        1 Z    SEL  0     ROOT SEL Z 0
     2 ALL2       12 GROUP        1 Z    ALL  0     **** ALL Z 1
     3 LYL3       16 GROUP        1 Z    LYL  0     **** LYL Z 2
     4 GLL5       18 GROUP        1 Z    GLL  0     **** GLL Z 4
     5 PHL6       26 GROUP        1 Z    PHL  0     **** PHL Z 6
     6 SEP1       27 GROUP        1 Z    SEP  0     **** SEP Z 7
     7 ALP2       41 GROUP        1 Z    ALP  0     **** ALP Z 8
     8 LYP3       47 GROUP        1 Z    LYP  0     **** LYP Z 9
     9 GLP5       49 GROUP        1 Z    GLP  0     **** GLP Z 11
    10 PHP6       57 GROUP        1 Z    PHP  0     **** PHP Z 13
    11 SEC1       58 GROUP        1 Z    SEC  0     **** SEC Z 14
    12 ALC2       73 GROUP        1 Z    ALC  0     **** ALC Z 15
    13 LYC3       79 GROUP        1 Z    LYC  0     **** LYC Z 16
    14 GLC5       81 GROUP        1 Z    GLC  0     **** GLC Z 18
    15 PHC6       90 GROUP        1 Z    PHC  0     **** PHC Z 20
@<TRIPOS>SET

