2hej_NDP_1_ligand
  -OEChem-08111718373D

 73 77  0     1  0  0  0  0  0999 V2000
   17.5801   -4.4183   27.2115 H   0  0  0  0  0  0  0  0  0  0  0  0
   19.2739   -2.6751   27.3323 H   0  0  0  0  0  0  0  0  0  0  0  0
   15.6050   -4.2409   28.5679 H   0  0  0  0  0  0  0  0  0  0  0  0
   16.9654   -0.6371   30.1929 H   0  0  0  0  0  0  0  0  0  0  0  0
    8.6530  -17.6265   33.7991 H   0  0  0  0  0  0  0  0  0  0  0  0
    9.2081  -11.3587   32.9097 H   0  0  0  0  0  0  0  0  0  0  0  0
   10.7904  -10.9378   29.6809 H   0  0  0  0  0  0  0  0  0  0  0  0
   13.4978   -3.8526   28.8866 H   0  0  0  0  0  0  0  0  0  0  0  0
    9.0274  -12.0286   30.4669 H   0  0  0  0  0  0  0  0  0  0  0  0
   13.8499   -1.6181   28.6528 H   0  0  0  0  0  0  0  0  0  0  0  0
   12.4637  -13.2392   29.9732 H   0  0  0  0  0  0  0  0  0  0  0  0
   12.7842   -3.3278   31.6282 H   0  0  0  0  0  0  0  0  0  0  0  0
   10.4116  -14.4163   31.0460 H   0  0  0  0  0  0  0  0  0  0  0  0
   15.1157   -1.4315   30.9663 H   0  0  0  0  0  0  0  0  0  0  0  0
   13.9602  -11.9382   31.1608 H   0  0  0  0  0  0  0  0  0  0  0  0
   13.5796  -11.1240   29.7974 H   0  0  0  0  0  0  0  0  0  0  0  0
   13.9284   -5.5157   31.9373 H   0  0  0  0  0  0  0  0  0  0  0  0
   12.3501   -5.5024   31.5185 H   0  0  0  0  0  0  0  0  0  0  0  0
    6.6271  -15.0836   36.9942 H   0  0  0  0  0  0  0  0  0  0  0  0
    6.9207  -13.4411   36.5297 H   0  0  0  0  0  0  0  0  0  0  0  0
   19.8117    1.3275   29.8202 H   0  0  0  0  0  0  0  0  0  0  0  0
   18.2986    0.6347   30.3003 H   0  0  0  0  0  0  0  0  0  0  0  0
   10.4583  -11.8782   27.6263 H   0  0  0  0  0  0  0  0  0  0  0  0
   11.1816   -4.0775   29.7098 H   0  0  0  0  0  0  0  0  0  0  0  0
   13.2633   -0.3071   30.6718 H   0  0  0  0  0  0  0  0  0  0  0  0
   17.4560   -3.6360   27.8220 C   0  0  0  0  0  0  0  0  0  0  0  0
   18.4510   -2.6130   27.8970 C   0  0  0  0  0  0  0  0  0  0  0  0
   16.3080   -3.5310   28.6110 C   0  0  0  0  0  0  0  0  0  0  0  0
   17.1020   -1.4090   29.5720 C   0  0  0  0  0  0  0  0  0  0  0  0
    8.5710  -16.6380   33.9260 C   0  0  0  0  0  0  0  0  0  0  0  0
    9.0140  -12.2890   33.2210 C   0  0  0  0  0  0  0  0  0  0  0  0
   18.2690   -1.4790   28.7950 C   0  0  0  0  0  0  0  0  0  0  0  0
    8.2930  -13.9140   34.3560 C   0  0  0  0  0  0  0  0  0  0  0  0
    8.9890  -14.4780   33.2630 C   0  0  0  0  0  0  0  0  0  0  0  0
    7.7050  -14.8460   35.2870 C   0  0  0  0  0  0  0  0  0  0  0  0
   19.3210   -0.4180   28.8790 C   0  0  0  0  0  0  0  0  0  0  0  0
   10.9120  -11.9220   29.5520 C   0  0  1  0  0  0  0  0  0  0  0  0
   13.0050   -3.2930   29.5530 C   0  0  1  0  0  0  0  0  0  0  0  0
    9.7130  -12.6820   30.1460 C   0  0  2  0  0  0  0  0  0  0  0  0
   13.6440   -1.9250   29.5820 C   0  0  2  0  0  0  0  0  0  0  0  0
   12.0870  -12.4250   30.4150 C   0  0  1  0  0  0  0  0  0  0  0  0
   13.3570   -3.8040   30.9610 C   0  0  1  0  0  0  0  0  0  0  0  0
   10.2490  -13.4670   31.3150 C   0  0  2  0  0  0  0  0  0  0  0  0
   14.9400   -2.2000   30.3510 C   0  0  2  0  0  0  0  0  0  0  0  0
   13.2280  -11.4680   30.6680 C   0  0  1  0  0  0  0  0  0  0  0  0
   13.2760   -5.2710   31.2200 C   0  0  1  0  0  0  0  0  0  0  0  0
    9.1680  -15.8340   32.9830 N   0  0  0  0  0  0  0  0  0  0  0  0
    7.8680  -16.2020   35.0330 N   0  0  0  0  0  0  0  0  0  0  0  0
    8.3200  -12.5540   34.3110 N   0  0  0  0  0  0  0  0  0  0  0  0
    9.4500  -13.4210   32.5460 N   0  0  0  0  0  0  0  0  0  0  0  0
   16.1370   -2.4010   29.4860 N   0  3  0  0  0  0  0  0  0  0  0  0
    7.0270  -14.4210   36.3610 N   0  0  0  0  0  0  0  0  0  0  0  0
   19.1270    0.6030   29.7410 N   0  0  0  0  0  0  0  0  0  0  0  0
    7.4530  -14.6490   27.8150 O   0  5  0  0  0  0  0  0  0  0  0  0
    6.8060  -13.7260   30.0570 O   0  5  0  0  0  0  0  0  0  0  0  0
   13.0880   -8.3040   32.8280 O   0  5  0  0  0  0  0  0  0  0  0  0
   15.7930   -6.9190   30.8910 O   0  5  0  0  0  0  0  0  0  0  0  0
   20.3300   -0.5050   28.1750 O   0  0  0  0  0  0  0  0  0  0  0  0
    7.3410  -12.1160   28.2180 O   0  0  0  0  0  0  0  0  0  0  0  0
   15.0810   -9.8060   32.1920 O   0  0  0  0  0  0  0  0  0  0  0  0
   14.9780   -7.4020   28.5460 O   0  0  0  0  0  0  0  0  0  0  0  0
   11.4740  -12.8380   31.6450 O   0  0  0  0  0  0  0  0  0  0  0  0
   14.7370   -3.3560   31.1230 O   0  0  0  0  0  0  0  0  0  0  0  0
   11.2090  -12.1970   28.2050 O   0  0  0  0  0  0  0  0  0  0  0  0
   11.6240   -3.3250   29.2220 O   0  0  0  0  0  0  0  0  0  0  0  0
   12.7460   -1.0270   30.2090 O   0  0  0  0  0  0  0  0  0  0  0  0
    9.1220  -13.5700   29.2050 O   0  0  0  0  0  0  0  0  0  0  0  0
   12.7360  -10.3750   31.4580 O   0  0  0  0  0  0  0  0  0  0  0  0
   13.5840   -6.0010   30.0360 O   0  0  0  0  0  0  0  0  0  0  0  0
   13.9120   -8.4570   30.4770 O   0  0  0  0  0  0  0  0  0  0  0  0
    7.5750  -13.4930   28.7930 P   0  0  0  0  0  0  0  0  0  0  0  0
   13.7500   -9.1980   31.8650 P   0  0  1  0  0  0  0  0  0  0  0  0
   14.6410   -7.1710   29.9510 P   0  0  2  0  0  0  0  0  0  0  0  0
  1 26  1  0  0  0  0
  2 27  1  0  0  0  0
  3 28  1  0  0  0  0
  4 29  1  0  0  0  0
  5 30  1  0  0  0  0
  6 31  1  0  0  0  0
  7 37  1  0  0  0  0
  8 38  1  0  0  0  0
  9 39  1  0  0  0  0
 10 40  1  0  0  0  0
 11 41  1  0  0  0  0
 12 42  1  0  0  0  0
 13 43  1  0  0  0  0
 14 44  1  0  0  0  0
 15 45  1  0  0  0  0
 16 45  1  0  0  0  0
 17 46  1  0  0  0  0
 18 46  1  0  0  0  0
 19 52  1  0  0  0  0
 20 52  1  0  0  0  0
 21 53  1  0  0  0  0
 22 53  1  0  0  0  0
 23 64  1  0  0  0  0
 24 65  1  0  0  0  0
 25 66  1  0  0  0  0
 26 27  1  0  0  0  0
 26 28  2  0  0  0  0
 27 32  2  0  0  0  0
 28 51  1  0  0  0  0
 29 32  1  0  0  0  0
 29 51  2  0  0  0  0
 30 47  1  0  0  0  0
 30 48  2  0  0  0  0
 31 49  2  0  0  0  0
 31 50  1  0  0  0  0
 32 36  1  0  0  0  0
 33 34  1  0  0  0  0
 33 35  2  0  0  0  0
 33 49  1  0  0  0  0
 34 47  2  0  0  0  0
 34 50  1  0  0  0  0
 35 48  1  0  0  0  0
 35 52  1  0  0  0  0
 36 53  1  0  0  0  0
 36 58  2  0  0  0  0
 37 39  1  0  0  0  0
 37 41  1  0  0  0  0
 37 64  1  0  0  0  0
 38 40  1  0  0  0  0
 38 42  1  0  0  0  0
 38 65  1  0  0  0  0
 39 43  1  0  0  0  0
 39 67  1  0  0  0  0
 40 44  1  0  0  0  0
 40 66  1  0  0  0  0
 41 45  1  0  0  0  0
 41 62  1  0  0  0  0
 42 46  1  0  0  0  0
 42 63  1  0  0  0  0
 43 50  1  0  0  0  0
 43 62  1  0  0  0  0
 44 51  1  0  0  0  0
 44 63  1  0  0  0  0
 45 68  1  0  0  0  0
 46 69  1  0  0  0  0
 54 71  1  0  0  0  0
 55 71  1  0  0  0  0
 56 72  1  0  0  0  0
 57 73  1  0  0  0  0
 59 71  2  0  0  0  0
 60 72  2  0  0  0  0
 61 73  2  0  0  0  0
 67 71  1  0  0  0  0
 68 72  1  0  0  0  0
 69 73  1  0  0  0  0
 70 72  1  0  0  0  0
 70 73  1  0  0  0  0
M  CHG  5  56  -1  57  -1  51   1  54  -1  55  -1
M  END
> <scpdb_id>
2hej_1

$$$$
