@<TRIPOS>MOLECULE
2hej_NDP_1_ligand
   73    77     1     0     0
SMALL
NO_CHARGES


@<TRIPOS>ATOM
     1 PA          13.7500    -9.1980    31.8650 P.3          1 NDP401   0.0000
     2 O1A         15.0810    -9.8060    32.1920 O.co2        1 NDP401   0.0000
     3 O2A         13.0880    -8.3040    32.8280 O.co2        1 NDP401  -1.0000
     4 O5B         12.7360   -10.3750    31.4580 O.3          1 NDP401   0.0000
     5 C5B         13.2280   -11.4680    30.6680 C.3          1 NDP401   0.0000
     6 C4B         12.0870   -12.4250    30.4150 C.3          1 NDP401   0.0000
     7 O4B         11.4740   -12.8380    31.6450 O.3          1 NDP401   0.0000
     8 C3B         10.9120   -11.9220    29.5520 C.3          1 NDP401   0.0000
     9 O3B         11.2090   -12.1970    28.2050 O.3          1 NDP401   0.0000
    10 C2B          9.7130   -12.6820    30.1460 C.3          1 NDP401   0.0000
    11 O2B          9.1220   -13.5700    29.2050 O.3          1 NDP401   0.0000
    12 C1B         10.2490   -13.4670    31.3150 C.3          1 NDP401   0.0000
    13 N9A          9.4500   -13.4210    32.5460 N.pl3        1 NDP401   0.0000
    14 C8A          9.0140   -12.2890    33.2210 C.2          1 NDP401   0.0000
    15 N7A          8.3200   -12.5540    34.3110 N.2          1 NDP401   0.0000
    16 C5A          8.2930   -13.9140    34.3560 C.ar         1 NDP401   0.0000
    17 C6A          7.7050   -14.8460    35.2870 C.ar         1 NDP401   0.0000
    18 N6A          7.0270   -14.4210    36.3610 N.pl3        1 NDP401   0.0000
    19 N1A          7.8680   -16.2020    35.0330 N.ar         1 NDP401   0.0000
    20 C2A          8.5710   -16.6380    33.9260 C.ar         1 NDP401   0.0000
    21 N3A          9.1680   -15.8340    32.9830 N.ar         1 NDP401   0.0000
    22 C4A          8.9890   -14.4780    33.2630 C.ar         1 NDP401   0.0000
    23 O3          13.9120    -8.4570    30.4770 O.3          1 NDP401   0.0000
    24 PN          14.6410    -7.1710    29.9510 P.3          1 NDP401   0.0000
    25 O1N         14.9780    -7.4020    28.5460 O.co2        1 NDP401   0.0000
    26 O2N         15.7930    -6.9190    30.8910 O.co2        1 NDP401  -1.0000
    27 O5D         13.5840    -6.0010    30.0360 O.3          1 NDP401   0.0000
    28 C5D         13.2760    -5.2710    31.2200 C.3          1 NDP401   0.0000
    29 C4D         13.3570    -3.8040    30.9610 C.3          1 NDP401   0.0000
    30 O4D         14.7370    -3.3560    31.1230 O.3          1 NDP401   0.0000
    31 C3D         13.0050    -3.2930    29.5530 C.3          1 NDP401   0.0000
    32 O3D         11.6240    -3.3250    29.2220 O.3          1 NDP401   0.0000
    33 C2D         13.6440    -1.9250    29.5820 C.3          1 NDP401   0.0000
    34 O2D         12.7460    -1.0270    30.2090 O.3          1 NDP401   0.0000
    35 C1D         14.9400    -2.2000    30.3510 C.3          1 NDP401   0.0000
    36 N1N         16.1370    -2.4010    29.4860 N.ar         1 NDP401   1.0000
    37 C2N         17.1020    -1.4090    29.5720 C.ar         1 NDP401   0.0000
    38 C3N         18.2690    -1.4790    28.7950 C.ar         1 NDP401   0.0000
    39 C7N         19.3210    -0.4180    28.8790 C.2          1 NDP401   0.0000
    40 O7N         20.3300    -0.5050    28.1750 O.2          1 NDP401   0.0000
    41 N7N         19.1270     0.6030    29.7410 N.am         1 NDP401   0.0000
    42 C4N         18.4510    -2.6130    27.8970 C.ar         1 NDP401   0.0000
    43 C5N         17.4560    -3.6360    27.8220 C.ar         1 NDP401   0.0000
    44 C6N         16.3080    -3.5310    28.6110 C.ar         1 NDP401   0.0000
    45 P2B          7.5750   -13.4930    28.7930 P.3          1 NDP401   0.0000
    46 O1X          7.3410   -12.1160    28.2180 O.co2        1 NDP401   0.0000
    47 O2X          7.4530   -14.6490    27.8150 O.co2        1 NDP401  -1.0000
    48 O3X          6.8060   -13.7260    30.0570 O.co2        1 NDP401  -1.0000
    49 H5B1        13.9602   -11.9382    31.1608 H            1 NDP401   0.0000
    50 H5B2        13.5796   -11.1240    29.7974 H            1 NDP401   0.0000
    51 H4B         12.4637   -13.2392    29.9732 H            1 NDP401   0.0000
    52 H3B         10.7904   -10.9378    29.6809 H            1 NDP401   0.0000
    53 H5          10.4583   -11.8782    27.6263 H            1 NDP401   0.0000
    54 H2B          9.0274   -12.0286    30.4669 H            1 NDP401   0.0000
    55 H1B         10.4116   -14.4163    31.0460 H            1 NDP401   0.0000
    56 H8A          9.2081   -11.3587    32.9097 H            1 NDP401   0.0000
    57 H6A1         6.6271   -15.0836    36.9942 H            1 NDP401   0.0000
    58 H6A2         6.9207   -13.4411    36.5297 H            1 NDP401   0.0000
    59 H2A          8.6530   -17.6265    33.7991 H            1 NDP401   0.0000
    60 H5D1        13.9284    -5.5157    31.9373 H            1 NDP401   0.0000
    61 H5D2        12.3501    -5.5024    31.5185 H            1 NDP401   0.0000
    62 H4D         12.7842    -3.3278    31.6282 H            1 NDP401   0.0000
    63 H3D         13.4978    -3.8526    28.8866 H            1 NDP401   0.0000
    64 H16         11.1816    -4.0775    29.7098 H            1 NDP401   0.0000
    65 H2D         13.8499    -1.6181    28.6528 H            1 NDP401   0.0000
    66 H18         13.2633    -0.3071    30.6718 H            1 NDP401   0.0000
    67 H1D         15.1157    -1.4315    30.9663 H            1 NDP401   0.0000
    68 H2N         16.9654    -0.6371    30.1929 H            1 NDP401   0.0000
    69 H7N1        19.8117     1.3275    29.8202 H            1 NDP401   0.0000
    70 H7N2        18.2986     0.6347    30.3003 H            1 NDP401   0.0000
    71 H4N         19.2739    -2.6751    27.3323 H            1 NDP401   0.0000
    72 H5N         17.5801    -4.4183    27.2115 H            1 NDP401   0.0000
    73 H6N         15.6050    -4.2409    28.5679 H            1 NDP401   0.0000
@<TRIPOS>BOND
     1    1    2      ar
     2    1    3      ar
     3    1    4       1
     4    1   23       1
     5    4    5       1
     6    5    6       1
     7    6    7       1
     8    6    8       1
     9    7   12       1
    10    8    9       1
    11    8   10       1
    12   10   11       1
    13   10   12       1
    14   11   45       1
    15   12   13       1
    16   13   14       1
    17   13   22       1
    18   14   15       2
    19   15   16       1
    20   16   17      ar
    21   16   22      ar
    22   17   18       1
    23   17   19      ar
    24   19   20      ar
    25   20   21      ar
    26   21   22      ar
    27   23   24       1
    28   24   25      ar
    29   24   26      ar
    30   24   27       1
    31   27   28       1
    32   28   29       1
    33   29   30       1
    34   29   31       1
    35   30   35       1
    36   31   32       1
    37   31   33       1
    38   33   34       1
    39   33   35       1
    40   35   36       1
    41   36   37      ar
    42   36   44      ar
    43   37   38      ar
    44   38   39       1
    45   38   42      ar
    46   39   40       2
    47   39   41      am
    48   42   43      ar
    49   43   44      ar
    50   45   46      ar
    51   45   47      ar
    52   45   48      ar
    53   43   72       1
    54    5   49       1
    55    5   50       1
    56    6   51       1
    57    8   52       1
    58    9   53       1
    59   10   54       1
    60   12   55       1
    61   14   56       1
    62   18   57       1
    63   18   58       1
    64   20   59       1
    65   44   73       1
    66   28   60       1
    67   28   61       1
    68   29   62       1
    69   31   63       1
    70   32   64       1
    71   33   65       1
    72   34   66       1
    73   35   67       1
    74   37   68       1
    75   41   69       1
    76   41   70       1
    77   42   71       1
@<TRIPOS>SUBSTRUCTURE
     1 NDP401      1 GROUP             4 A     NDP     0 **** NDP A 401
