#    Name: 11364
#    Modification time : Tue Aug  8 22:44:15 2017

@<TRIPOS>MOLECULE
11364
   80     0     9     0     0
SMALL
NO_CHARGES


@<TRIPOS>ATOM
      1 N          18.0930    7.0170   19.7520 N.am      1 SEL1        0.0000 
      2 N          20.2780    6.6580   19.8770 N.am      1 SEL1        0.0000 
      3 CA         24.4030   10.6080   12.0960 C.3       2 GLL5        0.0000 
      4 CA         21.9780    9.3750   17.1350 C.3       2 GLL5        0.0000 
      5 CA         20.7540   10.2820   17.3190 C.3       2 GLL5        0.0000 
      6 CA         20.9100   11.1900   18.5310 C.3       2 GLL5        0.0000 
      7 CA         19.0930    3.2910   13.7840 C.3       2 GLL5        0.0000 
      8 CA         17.8040    5.2270   16.9060 C.3       2 GLL5        0.0000 
      9 CA         15.3640    4.6130   13.0080 C.3       2 GLL5        0.0000 
     10 CA         13.8470    4.4720   15.0330 C.3       2 GLL5        0.0000 
     11 CA         21.9410    8.3830   15.9580 C.3       2 GLL5        0.0000 
     12 CA         22.5670    7.8480   13.6040 C.3       2 GLL5        0.0000 
     13 CA         21.9860    6.5990   13.6840 C.3       2 GLL5        0.0000 
     14 CA         19.6800    4.6890   13.8080 C.3       2 GLL5        0.0000 
     15 CA         17.5740    7.4790   15.9720 C.3       2 GLL5        0.0000 
     16 CA         16.7210    4.7930   16.0770 C.3       2 GLL5        0.0000 
     17 CA         14.8870    5.3210   14.2770 C.3       2 GLL5        0.0000 
     18 CZ         21.9520    7.4685   14.8128 C.ar      3 PHL6        0.0000 
     19 N          15.6320    7.7880   19.0110 N.am      4 SEP1        0.0000 
     20 N          17.2930    5.1410   21.7450 N.am      4 SEP1        0.0000 
     21 N          20.0320    5.5410   22.1570 N.am      4 SEP1        0.0000 
     22 N          22.5150    5.3000   19.4640 N.am      4 SEP1        0.0000 
     23 CA         21.9700   10.7240    9.0400 C.3       5 GLP5        0.0000 
     24 CA         23.5830   13.7380   13.7340 C.3       5 GLP5        0.0000 
     25 CA         27.5210   11.8750   13.5850 C.3       5 GLP5        0.0000 
     26 CA         26.0480    7.7170   14.4880 C.3       5 GLP5        0.0000 
     27 CA         25.9940    8.2980   16.8450 C.3       5 GLP5        0.0000 
     28 CA         24.4580    9.3250   20.5240 C.3       5 GLP5        0.0000 
     29 CA         19.0000    9.5310   13.5480 C.3       5 GLP5        0.0000 
     30 CA         23.9500   13.1270   17.9950 C.3       5 GLP5        0.0000 
     31 CA         21.3560   12.6700   22.3850 C.3       5 GLP5        0.0000 
     32 CA         17.5130   10.7610   20.8700 C.3       5 GLP5        0.0000 
     33 CA         19.0800    1.4330   17.6460 C.3       5 GLP5        0.0000 
     34 CA         21.2150   -0.2610   14.3340 C.3       5 GLP5        0.0000 
     35 CA         15.2900    8.7450   18.0390 C.3       5 GLP5        0.0000 
     36 CA         15.3790    1.5680   11.2890 C.3       5 GLP5        0.0000 
     37 CA         10.7450    5.5940   17.3030 C.3       5 GLP5        0.0000 
     38 CA         19.6350    8.9010   11.9920 C.3       5 GLP5        0.0000 
     39 CA         25.4410    5.4190   13.6750 C.3       5 GLP5        0.0000 
     40 CA         24.5980   12.2660   17.1060 C.3       5 GLP5        0.0000 
     41 CA         17.9160   13.3240   17.1740 C.3       5 GLP5        0.0000 
     42 CA         21.4800    3.8050   11.3020 C.3       5 GLP5        0.0000 
     43 CA         15.0220    2.3640   17.5550 C.3       5 GLP5        0.0000 
     44 CA         12.6120    8.0560   12.8550 C.3       5 GLP5        0.0000 
     45 CZ         25.8017    7.3605   15.8072 C.ar      6 PHP6        0.0000 
     46 N          16.8625    7.4025   19.3815 N.am      7 SEC1        0.0000 
     47 N          17.6930    6.0790   20.7485 N.am      7 SEC1        0.0000 
     48 N          19.0625    6.2790   20.9545 N.am      7 SEC1        0.0000 
     49 N          21.3965    5.9790   19.6705 N.am      7 SEC1        0.0000 
     50 N          20.1550    6.0995   21.0170 N.am      7 SEC1        0.0000 
     51 CA         23.1865   10.6660   10.5680 C.3       8 GLC5        0.0000 
     52 CA         23.9930   12.1730   12.9150 C.3       8 GLC5        0.0000 
     53 CA         25.9620   11.2415   12.8405 C.3       8 GLC5        0.0000 
     54 CA         25.2255    9.1625   13.2920 C.3       8 GLC5        0.0000 
     55 CA         23.9860    8.8365   16.9900 C.3       8 GLC5        0.0000 
     56 CA         23.2180    9.3500   18.8295 C.3       8 GLC5        0.0000 
     57 CA         19.8770    9.9065   15.4335 C.3       8 GLC5        0.0000 
     58 CA         22.4300   12.1585   18.2630 C.3       8 GLC5        0.0000 
     59 CA         22.6840   10.2575   19.5275 C.3       8 GLC5        0.0000 
     60 CA         21.1330   11.9300   20.4580 C.3       8 GLC5        0.0000 
     61 CA         19.2115   10.9755   19.7005 C.3       8 GLC5        0.0000 
     62 CA         19.0865    2.3620   15.7150 C.3       8 GLC5        0.0000 
     63 CA         20.1540    1.5150   14.0590 C.3       8 GLC5        0.0000 
     64 CA         16.5470    6.9860   17.4725 C.3       8 GLC5        0.0000 
     65 CA         15.3715    3.0905   12.1485 C.3       8 GLC5        0.0000 
     66 CA         12.2960    5.0330   16.1680 C.3       8 GLC5        0.0000 
     67 CA         20.3165    8.5168   14.6310 C.3       8 GLC5        0.0000 
     68 CA         20.9558    8.0622   12.8180 C.3       8 GLC5        0.0000 
     69 CA         23.7784    6.2700   13.8108 C.3       8 GLC5        0.0000 
     70 CA         22.9820   11.0473   17.1665 C.3       8 GLC5        0.0000 
     71 CA         19.3740   12.0300   17.5495 C.3       8 GLC5        0.0000 
     72 CA         20.4333    3.8975   12.5490 C.3       8 GLC5        0.0000 
     73 CA         16.7429    7.9609   17.3271 C.3       8 GLC5        0.0000 
     74 CA         18.1047    8.2869   14.6664 C.3       8 GLC5        0.0000 
     75 CA         15.9194    7.6162   16.7089 C.3       8 GLC5        0.0000 
     76 CA         16.0590    3.8019   16.9125 C.3       8 GLC5        0.0000 
     77 CA         14.8405    3.6791   16.2193 C.3       8 GLC5        0.0000 
     78 CA         21.2461    4.7750   12.8113 C.3       8 GLC5        0.0000 
     79 CA         13.6791    6.4939   13.5019 C.3       8 GLC5        0.0000 
     80 CZ         23.8768    7.4145   15.3100 C.ar      9 PHC6        0.0000 
@<TRIPOS>BOND
@<TRIPOS>SUBSTRUCTURE
     1 SEL1        1 GROUP        1 Z    SEL  0     ROOT SEL Z 0
     2 GLL5        3 GROUP        1 Z    GLL  0     **** GLL Z 4
     3 PHL6       18 GROUP        1 Z    PHL  0     **** PHL Z 6
     4 SEP1       19 GROUP        1 Z    SEP  0     **** SEP Z 7
     5 GLP5       23 GROUP        1 Z    GLP  0     **** GLP Z 11
     6 PHP6       45 GROUP        1 Z    PHP  0     **** PHP Z 13
     7 SEC1       46 GROUP        1 Z    SEC  0     **** SEC Z 14
     8 GLC5       51 GROUP        1 Z    GLC  0     **** GLC Z 18
     9 PHC6       80 GROUP        1 Z    PHC  0     **** PHC Z 20
@<TRIPOS>SET

