1zeo_C01_1_ligand
  -OEChem-08111718373D

 61 63  0     1  0  0  0  0  0999 V2000
   17.8634    8.4352   15.9284 H   0  0  0  0  0  0  0  0  0  0  0  0
   18.2540    4.5823   17.5239 H   0  0  0  0  0  0  0  0  0  0  0  0
   16.0673    7.7009   14.5482 H   0  0  0  0  0  0  0  0  0  0  0  0
   16.4230    3.8391   16.1136 H   0  0  0  0  0  0  0  0  0  0  0  0
   22.0144    5.9818   12.8977 H   0  0  0  0  0  0  0  0  0  0  0  0
   18.4036    3.2313   13.0620 H   0  0  0  0  0  0  0  0  0  0  0  0
   19.8197    2.6273   13.6067 H   0  0  0  0  0  0  0  0  0  0  0  0
   18.6686    3.0925   14.6674 H   0  0  0  0  0  0  0  0  0  0  0  0
   20.0979   11.7664   18.6224 H   0  0  0  0  0  0  0  0  0  0  0  0
   21.0171   10.6320   19.3539 H   0  0  0  0  0  0  0  0  0  0  0  0
   21.7174   11.7680   18.4127 H   0  0  0  0  0  0  0  0  0  0  0  0
   14.5746    4.3760   12.4418 H   0  0  0  0  0  0  0  0  0  0  0  0
   15.9713    5.2203   12.4957 H   0  0  0  0  0  0  0  0  0  0  0  0
   15.8580    3.7799   13.2568 H   0  0  0  0  0  0  0  0  0  0  0  0
   13.0990    4.2323   14.4141 H   0  0  0  0  0  0  0  0  0  0  0  0
   14.2807    3.6367   15.3709 H   0  0  0  0  0  0  0  0  0  0  0  0
   13.4863    4.9960   15.8046 H   0  0  0  0  0  0  0  0  0  0  0  0
   24.5541   10.1996   11.1958 H   0  0  0  0  0  0  0  0  0  0  0  0
   23.8824   11.4557   11.9943 H   0  0  0  0  0  0  0  0  0  0  0  0
   25.2846   10.8075   12.5238 H   0  0  0  0  0  0  0  0  0  0  0  0
   20.3121    4.6494   15.7886 H   0  0  0  0  0  0  0  0  0  0  0  0
   21.4559    4.1403   14.7401 H   0  0  0  0  0  0  0  0  0  0  0  0
   22.7748    9.9655   17.0071 H   0  0  0  0  0  0  0  0  0  0  0  0
   22.0886    8.8432   17.9746 H   0  0  0  0  0  0  0  0  0  0  0  0
   20.0996    4.8831   12.9213 H   0  0  0  0  0  0  0  0  0  0  0  0
   18.9485    5.3482   13.9820 H   0  0  0  0  0  0  0  0  0  0  0  0
   19.9423    9.7113   17.4428 H   0  0  0  0  0  0  0  0  0  0  0  0
   20.6425   10.8472   16.5016 H   0  0  0  0  0  0  0  0  0  0  0  0
   19.4328    8.1372   17.5111 H   0  0  0  0  0  0  0  0  0  0  0  0
   14.4335    6.1663   13.9944 H   0  0  0  0  0  0  0  0  0  0  0  0
   17.5740    7.4790   15.9720 C   0  0  0  0  0  0  0  0  0  0  0  0
   17.8040    5.2270   16.9060 C   0  0  0  0  0  0  0  0  0  0  0  0
   16.5110    7.0470   15.1610 C   0  0  0  0  0  0  0  0  0  0  0  0
   16.7210    4.7930   16.0770 C   0  0  0  0  0  0  0  0  0  0  0  0
   21.9860    6.5990   13.6840 C   0  0  0  0  0  0  0  0  0  0  0  0
   22.5670    7.8480   13.6040 C   0  0  0  0  0  0  0  0  0  0  0  0
   18.2420    6.5980   16.8450 C   0  0  0  0  0  0  0  0  0  0  0  0
   16.0550    5.7120   15.1910 C   0  0  0  0  0  0  0  0  0  0  0  0
   21.3430    6.1890   14.8940 C   0  0  0  0  0  0  0  0  0  0  0  0
   21.9410    8.3830   15.9580 C   0  0  0  0  0  0  0  0  0  0  0  0
   22.5680    8.7370   14.6910 C   0  0  0  0  0  0  0  0  0  0  0  0
   21.3070    7.0550   16.0460 C   0  0  0  0  0  0  0  0  0  0  0  0
   23.2820    8.4460   12.4820 C   0  0  0  0  0  0  0  0  0  0  0  0
   19.1490    6.9320   19.2070 C   0  0  0  0  0  0  0  0  0  0  0  0
   19.0930    3.2910   13.7840 C   0  0  0  0  0  0  0  0  0  0  0  0
   20.9100   11.1900   18.5310 C   0  0  0  0  0  0  0  0  0  0  0  0
   15.3640    4.6130   13.0080 C   0  0  0  0  0  0  0  0  0  0  0  0
   13.8470    4.4720   15.0330 C   0  0  0  0  0  0  0  0  0  0  0  0
   24.4030   10.6080   12.0960 C   0  0  0  0  0  0  0  0  0  0  0  0
   20.7370    4.8170   14.8990 C   0  0  2  0  0  0  0  0  0  0  0  0
   21.9780    9.3750   17.1350 C   0  0  2  0  0  0  0  0  0  0  0  0
   19.6800    4.6890   13.8080 C   0  0  1  0  0  0  0  0  0  0  0  0
   20.7540   10.2820   17.3190 C   0  0  1  0  0  0  0  0  0  0  0  0
   19.3930    7.1510   17.6720 C   0  0  1  0  0  0  0  0  0  0  0  0
   14.8870    5.3210   14.2770 C   0  0  1  0  0  0  0  0  0  0  0  0
   23.6510    9.6700   12.9390 N   0  0  0  0  0  0  0  0  0  0  0  0
   20.2780    6.6580   19.8770 O   0  5  0  0  0  0  0  0  0  0  0  0
   23.4970    7.9900   11.3540 O   0  0  0  0  0  0  0  0  0  0  0  0
   18.0930    7.0170   19.7520 O   0  0  0  0  0  0  0  0  0  0  0  0
   23.2480    9.9190   14.3110 O   0  0  0  0  0  0  0  0  0  0  0  0
   20.6650    6.5880   17.2540 O   0  0  0  0  0  0  0  0  0  0  0  0
  1 31  1  0  0  0  0
  2 32  1  0  0  0  0
  3 33  1  0  0  0  0
  4 34  1  0  0  0  0
  5 35  1  0  0  0  0
  6 45  1  0  0  0  0
  7 45  1  0  0  0  0
  8 45  1  0  0  0  0
  9 46  1  0  0  0  0
 10 46  1  0  0  0  0
 11 46  1  0  0  0  0
 12 47  1  0  0  0  0
 13 47  1  0  0  0  0
 14 47  1  0  0  0  0
 15 48  1  0  0  0  0
 16 48  1  0  0  0  0
 17 48  1  0  0  0  0
 18 49  1  0  0  0  0
 19 49  1  0  0  0  0
 20 49  1  0  0  0  0
 21 50  1  0  0  0  0
 22 50  1  0  0  0  0
 23 51  1  0  0  0  0
 24 51  1  0  0  0  0
 25 52  1  0  0  0  0
 26 52  1  0  0  0  0
 27 53  1  0  0  0  0
 28 53  1  0  0  0  0
 29 54  1  0  0  0  0
 30 55  1  0  0  0  0
 31 33  1  0  0  0  0
 31 37  2  0  0  0  0
 32 34  2  0  0  0  0
 32 37  1  0  0  0  0
 33 38  2  0  0  0  0
 34 38  1  0  0  0  0
 35 36  2  0  0  0  0
 35 39  1  0  0  0  0
 36 41  1  0  0  0  0
 36 43  1  0  0  0  0
 37 54  1  0  0  0  0
 38 55  1  0  0  0  0
 39 42  2  0  0  0  0
 39 50  1  0  0  0  0
 40 41  2  0  0  0  0
 40 42  1  0  0  0  0
 40 51  1  0  0  0  0
 41 60  1  0  0  0  0
 42 61  1  0  0  0  0
 43 56  1  0  0  0  0
 43 58  2  0  0  0  0
 44 54  1  0  0  0  0
 44 57  1  0  0  0  0
 44 59  2  0  0  0  0
 45 52  1  0  0  0  0
 46 53  1  0  0  0  0
 47 55  1  0  0  0  0
 48 55  1  0  0  0  0
 49 56  1  0  0  0  0
 50 52  1  0  0  0  0
 51 53  1  0  0  0  0
 54 61  1  0  0  0  0
 56 60  1  0  0  0  0
M  CHG  1  57  -1
M  END
> <scpdb_id>
1zeo_1

$$$$
