@<TRIPOS>MOLECULE
1zeo_C01_1_ligand
   61    63     1     0     0
SMALL
NO_CHARGES


@<TRIPOS>ATOM
     1 C1          21.3430     6.1890    14.8940 C.ar         1 C01478   0.0000
     2 C2          21.3070     7.0550    16.0460 C.ar         1 C01478   0.0000
     3 C3          21.9410     8.3830    15.9580 C.ar         1 C01478   0.0000
     4 C4          22.5680     8.7370    14.6910 C.ar         1 C01478   0.0000
     5 C5          22.5670     7.8480    13.6040 C.ar         1 C01478   0.0000
     6 C6          21.9860     6.5990    13.6840 C.ar         1 C01478   0.0000
     7 O8          23.2480     9.9190    14.3110 O.2          1 C01478   0.0000
     8 N9          23.6510     9.6700    12.9390 N.pl3        1 C01478   0.0000
     9 C10         23.2820     8.4460    12.4820 C.2          1 C01478   0.0000
    10 C11         24.4030    10.6080    12.0960 C.3          1 C01478   0.0000
    11 O15         23.4970     7.9900    11.3540 O.2          1 C01478   0.0000
    12 C16         21.9780     9.3750    17.1350 C.3          1 C01478   0.0000
    13 C17         20.7540    10.2820    17.3190 C.3          1 C01478   0.0000
    14 C20         20.9100    11.1900    18.5310 C.3          1 C01478   0.0000
    15 C26         20.7370     4.8170    14.8990 C.3          1 C01478   0.0000
    16 C27         19.6800     4.6890    13.8080 C.3          1 C01478   0.0000
    17 C30         19.0930     3.2910    13.7840 C.3          1 C01478   0.0000
    18 O36         20.6650     6.5880    17.2540 O.3          1 C01478   0.0000
    19 C37         19.3930     7.1510    17.6720 C.3          1 C01478   0.0000
    20 C38         18.2420     6.5980    16.8450 C.ar         1 C01478   0.0000
    21 C39         19.1490     6.9320    19.2070 C.2          1 C01478   0.0000
    22 C40         17.5740     7.4790    15.9720 C.ar         1 C01478   0.0000
    23 C41         16.5110     7.0470    15.1610 C.ar         1 C01478   0.0000
    24 C42         16.0550     5.7120    15.1910 C.ar         1 C01478   0.0000
    25 C43         16.7210     4.7930    16.0770 C.ar         1 C01478   0.0000
    26 C44         17.8040     5.2270    16.9060 C.ar         1 C01478   0.0000
    27 C49         14.8870     5.3210    14.2770 C.3          1 C01478   0.0000
    28 C50         15.3640     4.6130    13.0080 C.3          1 C01478   0.0000
    29 C54         13.8470     4.4720    15.0330 C.3          1 C01478   0.0000
    30 O60         18.0930     7.0170    19.7520 O.co2        1 C01478   0.0000
    31 O61         20.2780     6.6580    19.8770 O.co2        1 C01478  -1.0000
    32 H1          22.0144     5.9818    12.8977 H            1 C01478   0.0000
    33 H2          24.5541    10.1996    11.1958 H            1 C01478   0.0000
    34 H3          23.8824    11.4557    11.9943 H            1 C01478   0.0000
    35 H4          25.2846    10.8075    12.5238 H            1 C01478   0.0000
    36 H5          22.7748     9.9655    17.0071 H            1 C01478   0.0000
    37 H6          22.0886     8.8432    17.9746 H            1 C01478   0.0000
    38 H7          19.9423     9.7113    17.4428 H            1 C01478   0.0000
    39 H8          20.6425    10.8472    16.5016 H            1 C01478   0.0000
    40 H9          20.0979    11.7664    18.6224 H            1 C01478   0.0000
    41 H10         21.0171    10.6320    19.3539 H            1 C01478   0.0000
    42 H11         21.7174    11.7680    18.4127 H            1 C01478   0.0000
    43 H12         20.3121     4.6494    15.7886 H            1 C01478   0.0000
    44 H13         21.4559     4.1403    14.7401 H            1 C01478   0.0000
    45 H14         20.0996     4.8831    12.9213 H            1 C01478   0.0000
    46 H15         18.9485     5.3482    13.9820 H            1 C01478   0.0000
    47 H16         18.4036     3.2313    13.0620 H            1 C01478   0.0000
    48 H17         19.8197     2.6273    13.6067 H            1 C01478   0.0000
    49 H18         18.6686     3.0925    14.6674 H            1 C01478   0.0000
    50 H19         19.4328     8.1372    17.5111 H            1 C01478   0.0000
    51 H20         17.8634     8.4352    15.9284 H            1 C01478   0.0000
    52 H21         16.0673     7.7009    14.5482 H            1 C01478   0.0000
    53 H22         16.4230     3.8391    16.1136 H            1 C01478   0.0000
    54 H23         18.2540     4.5823    17.5239 H            1 C01478   0.0000
    55 H24         14.4335     6.1663    13.9944 H            1 C01478   0.0000
    56 H25         14.5746     4.3760    12.4418 H            1 C01478   0.0000
    57 H26         15.9713     5.2203    12.4957 H            1 C01478   0.0000
    58 H27         15.8580     3.7799    13.2568 H            1 C01478   0.0000
    59 H28         13.0990     4.2323    14.4141 H            1 C01478   0.0000
    60 H29         14.2807     3.6367    15.3709 H            1 C01478   0.0000
    61 H30         13.4863     4.9960    15.8046 H            1 C01478   0.0000
@<TRIPOS>BOND
     1    1    2      ar
     2    1    6      ar
     3    1   15       1
     4    2    3      ar
     5    2   18       1
     6    3    4      ar
     7    3   12       1
     8    4    5      ar
     9    4    7       1
    10    5    6      ar
    11    5    9       1
    12    7    8       1
    13    8    9       1
    14    8   10       1
    15    9   11       2
    16   12   13       1
    17   13   14       1
    18   15   16       1
    19   16   17       1
    20   18   19       1
    21   19   20       1
    22   19   21       1
    23   20   22      ar
    24   20   26      ar
    25   21   30      ar
    26   21   31      ar
    27   22   23      ar
    28   23   24      ar
    29   24   25      ar
    30   24   27       1
    31   25   26      ar
    32   27   28       1
    33   27   29       1
    34    6   32       1
    35   10   33       1
    36   10   34       1
    37   10   35       1
    38   12   36       1
    39   12   37       1
    40   13   38       1
    41   13   39       1
    42   14   40       1
    43   14   41       1
    44   14   42       1
    45   15   43       1
    46   15   44       1
    47   16   45       1
    48   16   46       1
    49   17   47       1
    50   17   48       1
    51   17   49       1
    52   19   50       1
    53   22   51       1
    54   23   52       1
    55   25   53       1
    56   26   54       1
    57   27   55       1
    58   28   56       1
    59   28   57       1
    60   28   58       1
    61   29   59       1
    62   29   60       1
    63   29   61       1
@<TRIPOS>SUBSTRUCTURE
     1 C01478      1 GROUP             4 A     C01     0 **** C01 A 478
