#    Name: 43672
#    Modification time : Tue Aug  8 19:17:51 2017

@<TRIPOS>MOLECULE
43672
   84     0    12     0     0
SMALL
NO_CHARGES


@<TRIPOS>ATOM
      1 N          56.1270   32.4040  114.1460 N.am      1 SEL1        0.0000 
      2 N          60.8150   34.1680   96.8030 N.am      1 SEL1        0.0000 
      3 N          57.7390   33.9400  118.3290 N.am      1 SEL1        0.0000 
      4 N          56.6940   32.0080  118.3110 N.am      1 SEL1        0.0000 
      5 O          51.2560   30.3320  104.1650 O.2       2 ALL2        0.0000 
      6 O          54.6240   31.6220  105.1770 O.2       2 ALL2        0.0000 
      7 NZ         57.7390   33.9400  118.3290 N.4       3 LYL3        0.0000 
      8 NZ         56.6940   32.0080  118.3110 N.4       3 LYL3        0.0000 
      9 CA         53.8080   33.2190   99.4460 C.3       4 GLL5        0.0000 
     10 CA         51.8230   34.6550   99.5160 C.3       4 GLL5        0.0000 
     11 CA         52.3010   32.4030  103.6470 C.3       4 GLL5        0.0000 
     12 CA         54.0540   31.2220  108.2640 C.3       4 GLL5        0.0000 
     13 CA         53.5330   36.0570  110.1190 C.3       4 GLL5        0.0000 
     14 CA         49.8530   34.5640  101.2600 C.3       4 GLL5        0.0000 
     15 CA         54.9660   31.6730   98.0910 C.3       4 GLL5        0.0000 
     16 CA         53.4910   35.2100   95.3940 C.3       4 GLL5        0.0000 
     17 CA         54.7300   36.5020   95.0940 C.3       4 GLL5        0.0000 
     18 CA         51.3700   33.9650  100.6750 C.3       4 GLL5        0.0000 
     19 CA         54.6590   34.8500  111.7710 C.3       4 GLL5        0.0000 
     20 CA         56.4450   34.5930  115.7990 C.3       4 GLL5        0.0000 
     21 CA         58.6250   35.6320   95.7530 C.3       4 GLL5        0.0000 
     22 CA         58.5620   34.3140   96.2660 C.3       4 GLL5        0.0000 
     23 CA         55.4990   32.6420  111.2490 C.3       4 GLL5        0.0000 
     24 N          55.2250   29.6570  113.6180 N.am      5 SEP1        0.0000 
     25 N          61.9660   31.4090   98.6220 N.am      5 SEP1        0.0000 
     26 N          57.3980   33.5910  121.2760 N.am      5 SEP1        0.0000 
     27 N          54.7800   30.2680  117.2780 N.am      5 SEP1        0.0000 
     28 N          56.3410   31.5630  121.0950 N.am      5 SEP1        0.0000 
     29 O          48.5730   31.0590  102.3030 O.2       6 ALP2        0.0000 
     30 O          56.3800   32.4270  102.9000 O.2       6 ALP2        0.0000 
     31 NZ         56.7240   32.5940  121.8350 N.4       7 LYP3        0.0000 
     32 CA         57.1900   35.0170  100.2410 C.3       8 GLP5        0.0000 
     33 CA         50.2340   33.3140   96.1310 C.3       8 GLP5        0.0000 
     34 CA         55.1800   37.1990   99.9000 C.3       8 GLP5        0.0000 
     35 CA         52.3710   36.1640  103.1300 C.3       8 GLP5        0.0000 
     36 CA         52.4210   31.6270  112.3350 C.3       8 GLP5        0.0000 
     37 CA         52.3060   38.5930  111.8880 C.3       8 GLP5        0.0000 
     38 CA         55.9650   38.1070  107.6140 C.3       8 GLP5        0.0000 
     39 CA         48.5170   37.7400  102.3460 C.3       8 GLP5        0.0000 
     40 CA         46.9190   31.6220  100.6720 C.3       8 GLP5        0.0000 
     41 CA         51.0850   31.2230   97.2100 C.3       8 GLP5        0.0000 
     42 CA         51.3580   38.5930   94.8020 C.3       8 GLP5        0.0000 
     43 CA         53.5020   39.8800   94.6260 C.3       8 GLP5        0.0000 
     44 CA         52.6260   37.7470  113.1190 C.3       8 GLP5        0.0000 
     45 CA         51.0040   33.6860  112.3700 C.3       8 GLP5        0.0000 
     46 CA         52.7840   36.4160  116.8590 C.3       8 GLP5        0.0000 
     47 CA         60.5520   38.9760   95.9320 C.3       8 GLP5        0.0000 
     48 CA         57.2260   36.0100   99.0890 C.3       8 GLP5        0.0000 
     49 CA         51.9420   38.2390  100.4520 C.3       8 GLP5        0.0000 
     50 CA         50.5210   35.5340  108.6430 C.3       8 GLP5        0.0000 
     51 N          55.6760   31.0305  113.8820 N.am      9 SEC1        0.0000 
     52 N          61.3905   32.7885   97.7125 N.am      9 SEC1        0.0000 
     53 N          57.5685   33.7655  119.8025 N.am      9 SEC1        0.0000 
     54 N          57.0460   32.7995  119.7935 N.am      9 SEC1        0.0000 
     55 N          55.7370   31.1380  117.7945 N.am      9 SEC1        0.0000 
     56 N          56.5175   31.7855  119.7030 N.am      9 SEC1        0.0000 
     57 O          49.9145   30.6955  103.2340 O.2      10 ALC2        0.0000 
     58 O          55.5020   32.0245  104.0385 O.2      10 ALC2        0.0000 
     59 NZ         57.2315   33.2670  120.0820 N.4      11 LYC3        0.0000 
     60 NZ         56.7090   32.3010  120.0730 N.4      11 LYC3        0.0000 
     61 CA         55.4990   34.1180   99.8435 C.3      12 GLC5        0.0000 
     62 CA         51.0285   33.9845   97.8235 C.3      12 GLC5        0.0000 
     63 CA         53.5015   35.9270   99.7080 C.3      12 GLC5        0.0000 
     64 CA         52.3360   34.2835  103.3885 C.3      12 GLC5        0.0000 
     65 CA         53.2375   31.4245  110.2995 C.3      12 GLC5        0.0000 
     66 CA         52.9195   37.3250  111.0035 C.3      12 GLC5        0.0000 
     67 CA         54.7490   37.0820  108.8665 C.3      12 GLC5        0.0000 
     68 CA         49.1850   36.1520  101.8030 C.3      12 GLC5        0.0000 
     69 CA         48.3860   33.0930  100.9660 C.3      12 GLC5        0.0000 
     70 CA         51.1120   35.3640  102.1950 C.3      12 GLC5        0.0000 
     71 CA         53.0255   31.4480   97.6505 C.3      12 GLC5        0.0000 
     72 CA         51.8625   34.2620   95.7625 C.3      12 GLC5        0.0000 
     73 CA         52.4245   36.9015   95.0980 C.3      12 GLC5        0.0000 
     74 CA         54.1160   38.1910   94.8600 C.3      12 GLC5        0.0000 
     75 CA         52.0787   35.0987  101.6816 C.3      12 GLC5        0.0000 
     76 CA         53.5195   36.3243  112.1208 C.3      12 GLC5        0.0000 
     77 CA         52.4885   34.5826  111.4954 C.3      12 GLC5        0.0000 
     78 CA         54.5015   35.5485  115.9960 C.3      12 GLC5        0.0000 
     79 CA         59.2920   37.4735   95.7512 C.3      12 GLC5        0.0000 
     80 CA         57.7615   35.5763   97.5036 C.3      12 GLC5        0.0000 
     81 CA         51.6936   32.1817   98.9987 C.3      12 GLC5        0.0000 
     82 CA         51.5230   36.2631  100.4917 C.3      12 GLC5        0.0000 
     83 CA         53.6963   32.4481  111.4461 C.3      12 GLC5        0.0000 
     84 CA         52.2833   35.2535  109.3964 C.3      12 GLC5        0.0000 
@<TRIPOS>BOND
@<TRIPOS>SUBSTRUCTURE
     1 SEL1        1 GROUP        1 Z    SEL  0     ROOT SEL Z 0
     2 ALL2        5 GROUP        1 Z    ALL  0     **** ALL Z 1
     3 LYL3        7 GROUP        1 Z    LYL  0     **** LYL Z 2
     4 GLL5        9 GROUP        1 Z    GLL  0     **** GLL Z 4
     5 SEP1       24 GROUP        1 Z    SEP  0     **** SEP Z 7
     6 ALP2       29 GROUP        1 Z    ALP  0     **** ALP Z 8
     7 LYP3       31 GROUP        1 Z    LYP  0     **** LYP Z 9
     8 GLP5       32 GROUP        1 Z    GLP  0     **** GLP Z 11
     9 SEC1       51 GROUP        1 Z    SEC  0     **** SEC Z 14
    10 ALC2       57 GROUP        1 Z    ALC  0     **** ALC Z 15
    11 LYC3       59 GROUP        1 Z    LYC  0     **** LYC Z 16
    12 GLC5       61 GROUP        1 Z    GLC  0     **** GLC Z 18
@<TRIPOS>SET

