@<TRIPOS>MOLECULE
4i9h_1E4_8_ligand
   80    83     1     0     0
SMALL
NO_CHARGES


@<TRIPOS>ATOM
     1 C1          53.0610    34.2940    98.9130 C.ar         1 1E4401   0.0000
     2 C2          53.8080    33.2190    99.4460 C.ar         1 1E4401   0.0000
     3 C3          53.3500    32.5390   100.5990 C.ar         1 1E4401   0.0000
     4 C4          52.1300    32.8590   101.2260 C.ar         1 1E4401   0.0000
     5 C5          51.3700    33.9650   100.6750 C.ar         1 1E4401   0.0000
     6 C6          51.8230    34.6550    99.5160 C.ar         1 1E4401   0.0000
     7 O9          51.9060    32.0140   102.3500 O.3          1 1E4401   0.0000
     8 C10         52.3010    32.4030   103.6470 C.3          1 1E4401   0.0000
     9 C11         52.1930    31.2660   104.6920 C.3          1 1E4401   0.0000
    10 C14         53.6020    30.6370   104.9770 C.3          1 1E4401   0.0000
    11 C15         54.5470    30.0370   107.4150 C.3          1 1E4401   0.0000
    12 C16         54.0540    31.2220   108.2640 C.3          1 1E4401   0.0000
    13 O17         55.1880    31.6700   109.0340 O.3          1 1E4401   0.0000
    14 C20         54.9900    32.7500   109.9140 C.ar         1 1E4401   0.0000
    15 C21         55.4990    32.6420   111.2490 C.ar         1 1E4401   0.0000
    16 C22         55.3370    33.7020   112.2010 C.ar         1 1E4401   0.0000
    17 C23         54.6590    34.8500   111.7710 C.ar         1 1E4401   0.0000
    18 C24         54.1670    34.9530   110.4740 C.ar         1 1E4401   0.0000
    19 C25         54.3150    33.9290   109.5320 C.ar         1 1E4401   0.0000
    20 C29         55.8300    33.6500   113.6260 C.ar         1 1E4401   0.0000
    21 F30         53.5330    36.0570   110.1190 F            1 1E4401   0.0000
    22 C31         55.9930    34.7690   114.4670 C.ar         1 1E4401   0.0000
    23 C32         56.4450    34.5930   115.7990 C.ar         1 1E4401   0.0000
    24 C33         56.7380    33.3040   116.3050 C.ar         1 1E4401   0.0000
    25 C34         56.5640    32.2200   115.4240 C.ar         1 1E4401   0.0000
    26 N35         56.1270    32.4040   114.1460 N.ar         1 1E4401   0.0000
    27 C39         57.2010    33.0860   117.7010 C.2          1 1E4401   0.0000
    28 C40         53.7180    29.5960   106.1550 C.3          1 1E4401   0.0000
    29 CL4         49.8530    34.5640   101.2600 Cl           1 1E4401   0.0000
    30 O42         55.0240    32.8890    98.8300 O.3          1 1E4401   0.0000
    31 C43         54.9660    31.6730    98.0910 C.3          1 1E4401   0.0000
    32 N47         53.5460    34.9480    97.7930 N.am         1 1E4401   0.0000
    33 C48         52.7880    35.3590    96.7460 C.2          1 1E4401   0.0000
    34 C49         53.4910    35.2100    95.3940 C.3          1 1E4401   0.0000
    35 O50         51.8440    36.1360    96.8650 O.2          1 1E4401   0.0000
    36 S51         54.7300    36.5020    95.0940 S.3          1 1E4401   0.0000
    37 C54         56.2130    35.6450    95.5470 C.ar         1 1E4401   0.0000
    38 C55         57.4390    36.3100    95.3880 C.ar         1 1E4401   0.0000
    39 C56         58.6250    35.6320    95.7530 C.ar         1 1E4401   0.0000
    40 C57         58.5620    34.3140    96.2660 C.ar         1 1E4401   0.0000
    41 C58         57.2850    33.7290    96.3870 C.ar         1 1E4401   0.0000
    42 N59         56.1320    34.3760    96.0370 N.ar         1 1E4401   0.0000
    43 C63         59.7890    33.5890    96.6610 C.2          1 1E4401   0.0000
    44 O64         60.8150    34.1680    96.8030 O.co2        1 1E4401   0.0000
    45 O65         57.7390    33.9400   118.3290 O.co2        1 1E4401   0.0000
    46 O66         59.6280    32.3280    97.1030 O.co2        1 1E4401  -1.0000
    47 O67         56.6940    32.0080   118.3110 O.co2        1 1E4401  -1.0000
    48 O71         51.2560    30.3320   104.1650 O.3          1 1E4401   0.0000
    49 O74         52.4600    29.0100   106.3930 O.3          1 1E4401   0.0000
    50 O75         54.6240    31.6220   105.1770 O.3          1 1E4401   0.0000
    51 O77         54.5460    28.9170   108.2640 O.3          1 1E4401   0.0000
    52 H1          53.9119    31.8058   100.9821 H            1 1E4401   0.0000
    53 H2          51.2723    35.3927    99.1255 H            1 1E4401   0.0000
    54 H3          51.7181    33.1603   103.9417 H            1 1E4401   0.0000
    55 H4          53.2522    32.7094   103.6097 H            1 1E4401   0.0000
    56 H5          51.8292    31.6432   105.5437 H            1 1E4401   0.0000
    57 H6          53.8557    30.1419   104.1460 H            1 1E4401   0.0000
    58 H7          55.4878    30.2194   107.1294 H            1 1E4401   0.0000
    59 H8          53.3168    30.9285   108.8726 H            1 1E4401   0.0000
    60 H9          53.7249    31.9581   107.6725 H            1 1E4401   0.0000
    61 H10         55.9782    31.8082   111.5231 H            1 1E4401   0.0000
    62 H11         54.5263    35.6093   112.4081 H            1 1E4401   0.0000
    63 H12         53.9498    34.0306   108.6066 H            1 1E4401   0.0000
    64 H13         55.7900    35.6863   114.1245 H            1 1E4401   0.0000
    65 H14         56.5586    35.3916   116.3901 H            1 1E4401   0.0000
    66 H15         56.7656    31.2939   115.7429 H            1 1E4401   0.0000
    67 H16         54.2579    28.8511   105.7629 H            1 1E4401   0.0000
    68 H17         55.8580    31.4917    97.6770 H            1 1E4401   0.0000
    69 H18         54.7243    30.9213    98.7046 H            1 1E4401   0.0000
    70 H19         54.2750    31.7522    97.3725 H            1 1E4401   0.0000
    71 H20         54.5283    35.1309    97.7531 H            1 1E4401   0.0000
    72 H21         52.8025    35.2542    94.6701 H            1 1E4401   0.0000
    73 H22         53.9458    34.3198    95.3675 H            1 1E4401   0.0000
    74 H23         57.4728    37.2412    95.0252 H            1 1E4401   0.0000
    75 H24         59.5105    36.0847    95.6485 H            1 1E4401   0.0000
    76 H25         57.2192    32.7977    96.7454 H            1 1E4401   0.0000
    77 H26         50.3739    30.7838   104.0318 H            1 1E4401   0.0000
    78 H27         51.7886    29.3925   105.7582 H            1 1E4401   0.0000
    79 H28         55.0467    31.8467   104.2991 H            1 1E4401   0.0000
    80 H29         54.8606    28.1143   107.7573 H            1 1E4401   0.0000
@<TRIPOS>BOND
     1    1    2      ar
     2    1    6      ar
     3    1   32       1
     4    2    3      ar
     5    2   30       1
     6    3    4      ar
     7    4    5      ar
     8    4    7       1
     9    5    6      ar
    10    5   29       1
    11    7    8       1
    12    8    9       1
    13    9   10       1
    14    9   48       1
    15   10   28       1
    16   10   50       1
    17   11   12       1
    18   11   28       1
    19   11   51       1
    20   12   13       1
    21   13   14       1
    22   14   15      ar
    23   14   19      ar
    24   15   16      ar
    25   16   17      ar
    26   16   20       1
    27   17   18      ar
    28   18   19      ar
    29   18   21       1
    30   20   22      ar
    31   20   26      ar
    32   22   23      ar
    33   23   24      ar
    34   24   25      ar
    35   24   27       1
    36   25   26      ar
    37   27   45      ar
    38   27   47      ar
    39   28   49       1
    40   30   31       1
    41   32   33      am
    42   33   34       1
    43   33   35       2
    44   34   36       1
    45   36   37       1
    46   37   38      ar
    47   37   42      ar
    48   38   39      ar
    49   39   40      ar
    50   40   41      ar
    51   40   43       1
    52   41   42      ar
    53   43   44      ar
    54   43   46      ar
    55    3   52       1
    56    6   53       1
    57    8   54       1
    58    8   55       1
    59    9   56       1
    60   10   57       1
    61   11   58       1
    62   12   59       1
    63   12   60       1
    64   15   61       1
    65   17   62       1
    66   19   63       1
    67   22   64       1
    68   23   65       1
    69   25   66       1
    70   28   67       1
    71   31   68       1
    72   31   69       1
    73   31   70       1
    74   32   71       1
    75   34   72       1
    76   34   73       1
    77   38   74       1
    78   39   75       1
    79   41   76       1
    80   51   80       1
    81   50   79       1
    82   48   77       1
    83   49   78       1
@<TRIPOS>SUBSTRUCTURE
     1 1E4401      1 GROUP             4 H     1E4     0 **** 1E4 H 401
