4i9h_1E4_8_ligand
  -OEChem-08111718373D

 80 83  0     1  0  0  0  0  0999 V2000
   56.5586   35.3916  116.3901 H   0  0  0  0  0  0  0  0  0  0  0  0
   59.5105   36.0847   95.6485 H   0  0  0  0  0  0  0  0  0  0  0  0
   55.7900   35.6863  114.1245 H   0  0  0  0  0  0  0  0  0  0  0  0
   57.4728   37.2412   95.0252 H   0  0  0  0  0  0  0  0  0  0  0  0
   55.9782   31.8082  111.5231 H   0  0  0  0  0  0  0  0  0  0  0  0
   54.5263   35.6093  112.4081 H   0  0  0  0  0  0  0  0  0  0  0  0
   51.2723   35.3927   99.1255 H   0  0  0  0  0  0  0  0  0  0  0  0
   53.9119   31.8058  100.9821 H   0  0  0  0  0  0  0  0  0  0  0  0
   53.9498   34.0306  108.6066 H   0  0  0  0  0  0  0  0  0  0  0  0
   56.7656   31.2939  115.7429 H   0  0  0  0  0  0  0  0  0  0  0  0
   57.2192   32.7977   96.7454 H   0  0  0  0  0  0  0  0  0  0  0  0
   55.8580   31.4917   97.6770 H   0  0  0  0  0  0  0  0  0  0  0  0
   54.7243   30.9213   98.7046 H   0  0  0  0  0  0  0  0  0  0  0  0
   54.2750   31.7522   97.3725 H   0  0  0  0  0  0  0  0  0  0  0  0
   52.8025   35.2542   94.6701 H   0  0  0  0  0  0  0  0  0  0  0  0
   53.9458   34.3198   95.3675 H   0  0  0  0  0  0  0  0  0  0  0  0
   53.3168   30.9285  108.8726 H   0  0  0  0  0  0  0  0  0  0  0  0
   53.7249   31.9581  107.6725 H   0  0  0  0  0  0  0  0  0  0  0  0
   51.7181   33.1603  103.9417 H   0  0  0  0  0  0  0  0  0  0  0  0
   53.2522   32.7094  103.6097 H   0  0  0  0  0  0  0  0  0  0  0  0
   55.4878   30.2194  107.1294 H   0  0  0  0  0  0  0  0  0  0  0  0
   51.8292   31.6432  105.5437 H   0  0  0  0  0  0  0  0  0  0  0  0
   54.2579   28.8511  105.7629 H   0  0  0  0  0  0  0  0  0  0  0  0
   53.8557   30.1419  104.1460 H   0  0  0  0  0  0  0  0  0  0  0  0
   54.5283   35.1309   97.7531 H   0  0  0  0  0  0  0  0  0  0  0  0
   54.8606   28.1143  107.7573 H   0  0  0  0  0  0  0  0  0  0  0  0
   50.3739   30.7838  104.0318 H   0  0  0  0  0  0  0  0  0  0  0  0
   51.7886   29.3925  105.7582 H   0  0  0  0  0  0  0  0  0  0  0  0
   55.0467   31.8467  104.2991 H   0  0  0  0  0  0  0  0  0  0  0  0
   56.4450   34.5930  115.7990 C   0  0  0  0  0  0  0  0  0  0  0  0
   58.6250   35.6320   95.7530 C   0  0  0  0  0  0  0  0  0  0  0  0
   55.9930   34.7690  114.4670 C   0  0  0  0  0  0  0  0  0  0  0  0
   57.4390   36.3100   95.3880 C   0  0  0  0  0  0  0  0  0  0  0  0
   55.4990   32.6420  111.2490 C   0  0  0  0  0  0  0  0  0  0  0  0
   54.6590   34.8500  111.7710 C   0  0  0  0  0  0  0  0  0  0  0  0
   51.8230   34.6550   99.5160 C   0  0  0  0  0  0  0  0  0  0  0  0
   53.3500   32.5390  100.5990 C   0  0  0  0  0  0  0  0  0  0  0  0
   54.3150   33.9290  109.5320 C   0  0  0  0  0  0  0  0  0  0  0  0
   56.5640   32.2200  115.4240 C   0  0  0  0  0  0  0  0  0  0  0  0
   57.2850   33.7290   96.3870 C   0  0  0  0  0  0  0  0  0  0  0  0
   55.3370   33.7020  112.2010 C   0  0  0  0  0  0  0  0  0  0  0  0
   56.7380   33.3040  116.3050 C   0  0  0  0  0  0  0  0  0  0  0  0
   58.5620   34.3140   96.2660 C   0  0  0  0  0  0  0  0  0  0  0  0
   53.0610   34.2940   98.9130 C   0  0  0  0  0  0  0  0  0  0  0  0
   54.9900   32.7500  109.9140 C   0  0  0  0  0  0  0  0  0  0  0  0
   53.8080   33.2190   99.4460 C   0  0  0  0  0  0  0  0  0  0  0  0
   52.1300   32.8590  101.2260 C   0  0  0  0  0  0  0  0  0  0  0  0
   54.1670   34.9530  110.4740 C   0  0  0  0  0  0  0  0  0  0  0  0
   51.3700   33.9650  100.6750 C   0  0  0  0  0  0  0  0  0  0  0  0
   55.8300   33.6500  113.6260 C   0  0  0  0  0  0  0  0  0  0  0  0
   56.2130   35.6450   95.5470 C   0  0  0  0  0  0  0  0  0  0  0  0
   57.2010   33.0860  117.7010 C   0  0  0  0  0  0  0  0  0  0  0  0
   59.7890   33.5890   96.6610 C   0  0  0  0  0  0  0  0  0  0  0  0
   52.7880   35.3590   96.7460 C   0  0  0  0  0  0  0  0  0  0  0  0
   54.9660   31.6730   98.0910 C   0  0  0  0  0  0  0  0  0  0  0  0
   53.4910   35.2100   95.3940 C   0  0  2  0  0  0  0  0  0  0  0  0
   54.0540   31.2220  108.2640 C   0  0  2  0  0  0  0  0  0  0  0  0
   52.3010   32.4030  103.6470 C   0  0  1  0  0  0  0  0  0  0  0  0
   54.5470   30.0370  107.4150 C   0  0  2  0  0  0  0  0  0  0  0  0
   52.1930   31.2660  104.6920 C   0  0  2  0  0  0  0  0  0  0  0  0
   53.7180   29.5960  106.1550 C   0  0  2  0  0  0  0  0  0  0  0  0
   53.6020   30.6370  104.9770 C   0  0  2  0  0  0  0  0  0  0  0  0
   56.1270   32.4040  114.1460 N   0  0  0  0  0  0  0  0  0  0  0  0
   56.1320   34.3760   96.0370 N   0  0  0  0  0  0  0  0  0  0  0  0
   53.5460   34.9480   97.7930 N   0  0  0  0  0  0  0  0  0  0  0  0
   56.6940   32.0080  118.3110 O   0  5  0  0  0  0  0  0  0  0  0  0
   59.6280   32.3280   97.1030 O   0  5  0  0  0  0  0  0  0  0  0  0
   57.7390   33.9400  118.3290 O   0  0  0  0  0  0  0  0  0  0  0  0
   60.8150   34.1680   96.8030 O   0  0  0  0  0  0  0  0  0  0  0  0
   51.8440   36.1360   96.8650 O   0  0  0  0  0  0  0  0  0  0  0  0
   54.5460   28.9170  108.2640 O   0  0  0  0  0  0  0  0  0  0  0  0
   51.2560   30.3320  104.1650 O   0  0  0  0  0  0  0  0  0  0  0  0
   52.4600   29.0100  106.3930 O   0  0  0  0  0  0  0  0  0  0  0  0
   54.6240   31.6220  105.1770 O   0  0  0  0  0  0  0  0  0  0  0  0
   55.0240   32.8890   98.8300 O   0  0  0  0  0  0  0  0  0  0  0  0
   55.1880   31.6700  109.0340 O   0  0  0  0  0  0  0  0  0  0  0  0
   51.9060   32.0140  102.3500 O   0  0  0  0  0  0  0  0  0  0  0  0
   53.5330   36.0570  110.1190 F   0  0  0  0  0  0  0  0  0  0  0  0
   54.7300   36.5020   95.0940 S   0  0  0  0  0  0  0  0  0  0  0  0
   49.8530   34.5640  101.2600 Cl  0  0  0  0  0  0  0  0  0  0  0  0
  1 30  1  0  0  0  0
  2 31  1  0  0  0  0
  3 32  1  0  0  0  0
  4 33  1  0  0  0  0
  5 34  1  0  0  0  0
  6 35  1  0  0  0  0
  7 36  1  0  0  0  0
  8 37  1  0  0  0  0
  9 38  1  0  0  0  0
 10 39  1  0  0  0  0
 11 40  1  0  0  0  0
 12 55  1  0  0  0  0
 13 55  1  0  0  0  0
 14 55  1  0  0  0  0
 15 56  1  0  0  0  0
 16 56  1  0  0  0  0
 17 57  1  0  0  0  0
 18 57  1  0  0  0  0
 19 58  1  0  0  0  0
 20 58  1  0  0  0  0
 21 59  1  0  0  0  0
 22 60  1  0  0  0  0
 23 61  1  0  0  0  0
 24 62  1  0  0  0  0
 25 65  1  0  0  0  0
 26 71  1  0  0  0  0
 27 72  1  0  0  0  0
 28 73  1  0  0  0  0
 29 74  1  0  0  0  0
 30 32  1  0  0  0  0
 30 42  2  0  0  0  0
 31 33  1  0  0  0  0
 31 43  2  0  0  0  0
 32 50  2  0  0  0  0
 33 51  2  0  0  0  0
 34 41  1  0  0  0  0
 34 45  2  0  0  0  0
 35 41  2  0  0  0  0
 35 48  1  0  0  0  0
 36 44  1  0  0  0  0
 36 49  2  0  0  0  0
 37 46  1  0  0  0  0
 37 47  2  0  0  0  0
 38 45  1  0  0  0  0
 38 48  2  0  0  0  0
 39 42  1  0  0  0  0
 39 63  2  0  0  0  0
 40 43  1  0  0  0  0
 40 64  2  0  0  0  0
 41 50  1  0  0  0  0
 42 52  1  0  0  0  0
 43 53  1  0  0  0  0
 44 46  2  0  0  0  0
 44 65  1  0  0  0  0
 45 76  1  0  0  0  0
 46 75  1  0  0  0  0
 47 49  1  0  0  0  0
 47 77  1  0  0  0  0
 48 78  1  0  0  0  0
 49 80  1  0  0  0  0
 50 63  1  0  0  0  0
 51 64  1  0  0  0  0
 51 79  1  0  0  0  0
 52 66  1  0  0  0  0
 52 68  2  0  0  0  0
 53 67  1  0  0  0  0
 53 69  2  0  0  0  0
 54 56  1  0  0  0  0
 54 65  1  0  0  0  0
 54 70  2  0  0  0  0
 55 75  1  0  0  0  0
 56 79  1  0  0  0  0
 57 59  1  0  0  0  0
 57 76  1  0  0  0  0
 58 60  1  0  0  0  0
 58 77  1  0  0  0  0
 59 61  1  0  0  0  0
 59 71  1  0  0  0  0
 60 62  1  0  0  0  0
 60 72  1  0  0  0  0
 61 62  1  0  0  0  0
 61 73  1  0  0  0  0
 62 74  1  0  0  0  0
M  CHG  2  67  -1  66  -1
M  END
> <scpdb_id>
4i9h_8

$$$$
