#    Name: 16034
#    Modification time : Tue Aug  8 22:15:42 2017

@<TRIPOS>MOLECULE
16034
   88     0     9     0     0
SMALL
NO_CHARGES


@<TRIPOS>ATOM
      1 N           1.9230   25.6120   29.4400 N.am      1 SEL1        0.0000 
      2 N          10.5350   17.5640   33.0370 N.am      1 SEL1        0.0000 
      3 N           9.8080   15.9150   34.2490 N.am      1 SEL1        0.0000 
      4 NZ         10.5350   17.5640   33.0370 N.4       2 LYL3        0.0000 
      5 NZ          9.8080   15.9150   34.2490 N.4       2 LYL3        0.0000 
      6 CA          2.3540   21.7550   31.3060 C.3       3 GLL5        0.0000 
      7 CA          1.4270   22.6970   31.7290 C.3       3 GLL5        0.0000 
      8 CA          4.5460   20.4980   33.3470 C.3       3 GLL5        0.0000 
      9 CA          2.0540   24.3780   30.0420 C.3       3 GLL5        0.0000 
     10 CA          5.7610   18.5620   31.7330 C.3       3 GLL5        0.0000 
     11 CA          8.2320   17.1570   32.9820 C.3       3 GLL5        0.0000 
     12 CA          3.7580   21.8140   34.4760 C.3       3 GLL5        0.0000 
     13 CA          3.5920   18.3280   29.9380 C.3       3 GLL5        0.0000 
     14 CA          0.9380   25.7200   32.8070 C.3       3 GLL5        0.0000 
     15 CA         -1.0650   24.2530   32.1980 C.3       3 GLL5        0.0000 
     16 CA          3.0060   23.4380   29.5910 C.3       3 GLL5        0.0000 
     17 CA          0.2020   24.9570   31.6810 C.3       3 GLL5        0.0000 
     18 CA          7.8520   18.6100   33.2760 C.3       3 GLL5        0.0000 
     19 N           2.6470   25.4290   26.8780 N.am      4 SEP1        0.0000 
     20 N          11.7230   18.4350   35.6930 N.am      4 SEP1        0.0000 
     21 N          12.5650   19.2980   32.0210 N.am      4 SEP1        0.0000 
     22 N           8.1400   16.1470   36.4730 N.am      4 SEP1        0.0000 
     23 N           9.3850   13.2330   34.9160 N.am      4 SEP1        0.0000 
     24 NZ         13.0490   18.3930   35.6540 N.4       5 LYP3        0.0000 
     25 NZ         10.4360   12.4860   35.2730 N.4       5 LYP3        0.0000 
     26 CA         -0.2740   19.9980   28.7510 C.3       6 GLP5        0.0000 
     27 CA          0.2450   23.3850   35.9140 C.3       6 GLP5        0.0000 
     28 CA          6.1740   24.4810   33.0160 C.3       6 GLP5        0.0000 
     29 CA         -1.0950   26.6250   28.1670 C.3       6 GLP5        0.0000 
     30 CA          5.4490   14.5060   31.2250 C.3       6 GLP5        0.0000 
     31 CA         10.7750   14.7830   30.5930 C.3       6 GLP5        0.0000 
     32 CA          5.7450   24.8370   34.4450 C.3       6 GLP5        0.0000 
     33 CA          4.4890   21.6510   38.0580 C.3       6 GLP5        0.0000 
     34 CA          2.8030   18.0710   35.4560 C.3       6 GLP5        0.0000 
     35 CA          2.9700   20.8470   26.6830 C.3       6 GLP5        0.0000 
     36 CA          1.5860   17.2530   27.1520 C.3       6 GLP5        0.0000 
     37 CA          5.2240   24.9490   31.9290 C.3       6 GLP5        0.0000 
     38 CA          1.2500   28.3570   35.3090 C.3       6 GLP5        0.0000 
     39 CA         -2.8810   27.5420   33.7870 C.3       6 GLP5        0.0000 
     40 CA         -0.8710   19.1420   32.5010 C.3       6 GLP5        0.0000 
     41 CA          3.7770   16.2900   33.9940 C.3       6 GLP5        0.0000 
     42 CA          4.6060   21.5570   26.8950 C.3       6 GLP5        0.0000 
     43 CA         -2.0590   28.3120   32.9630 C.3       6 GLP5        0.0000 
     44 CA         -0.6110   22.4330   28.3210 C.3       6 GLP5        0.0000 
     45 CA          2.5280   28.3650   30.9130 C.3       6 GLP5        0.0000 
     46 CA          9.7870   21.4480   34.4060 C.3       6 GLP5        0.0000 
     47 CA          8.5840   19.7800   29.3760 C.3       6 GLP5        0.0000 
     48 CA         -1.4830   27.6710   29.5820 C.3       6 GLP5        0.0000 
     49 N           2.2850   25.5205   28.1590 N.am      7 SEC1        0.0000 
     50 N          11.1290   17.9995   34.3650 N.am      7 SEC1        0.0000 
     51 N          11.5500   18.4310   32.5290 N.am      7 SEC1        0.0000 
     52 N           8.9740   16.0310   35.3610 N.am      7 SEC1        0.0000 
     53 N           9.5965   14.5740   34.5825 N.am      7 SEC1        0.0000 
     54 N          10.7655   17.1750   34.9710 N.am      7 SEC1        0.0000 
     55 NZ         11.7920   17.9785   34.3455 N.4       8 LYC3        0.0000 
     56 NZ         10.1220   14.2005   34.7610 N.4       8 LYC3        0.0000 
     57 CA          1.0400   20.8765   30.0285 C.3       9 GLC5        0.0000 
     58 CA          0.8360   23.0410   33.8215 C.3       9 GLC5        0.0000 
     59 CA          5.3600   22.4895   33.1815 C.3       9 GLC5        0.0000 
     60 CA          0.4795   25.5015   29.1045 C.3       9 GLC5        0.0000 
     61 CA          5.6050   16.5340   31.4790 C.3       9 GLC5        0.0000 
     62 CA          9.5035   15.9700   31.7875 C.3       9 GLC5        0.0000 
     63 CA          6.8405   15.8315   32.1035 C.3       9 GLC5        0.0000 
     64 CA          4.7515   23.3255   34.4605 C.3       9 GLC5        0.0000 
     65 CA          2.0015   22.5995   35.1950 C.3       9 GLC5        0.0000 
     66 CA          4.1235   21.7325   36.2670 C.3       9 GLC5        0.0000 
     67 CA          3.2805   19.9425   34.9660 C.3       9 GLC5        0.0000 
     68 CA          3.2810   19.5875   28.3105 C.3       9 GLC5        0.0000 
     69 CA          4.5205   16.4170   30.5815 C.3       9 GLC5        0.0000 
     70 CA          1.6590   19.1630   29.3445 C.3       9 GLC5        0.0000 
     71 CA          2.5890   17.7905   28.5450 C.3       9 GLC5        0.0000 
     72 CA          3.0810   25.3345   32.3680 C.3       9 GLC5        0.0000 
     73 CA          0.5915   24.5525   34.3605 C.3       9 GLC5        0.0000 
     74 CA          1.0940   27.0385   34.0580 C.3       9 GLC5        0.0000 
     75 CA         -1.9730   25.8975   32.9925 C.3       9 GLC5        0.0000 
     76 CA         -0.4100   23.8190   34.0560 C.3       9 GLC5        0.0000 
     77 CA          0.5098   20.6840   32.0092 C.3       9 GLC5        0.0000 
     78 CA          3.6494   19.1031   34.1539 C.3       9 GLC5        0.0000 
     79 CA          4.5409   17.6007   32.9274 C.3       9 GLC5        0.0000 
     80 CA          3.8388   22.1835   28.3972 C.3       9 GLC5        0.0000 
     81 CA         -0.7445   26.8253   32.6035 C.3       9 GLC5        0.0000 
     82 CA         -0.5212   23.5190   30.1303 C.3       9 GLC5        0.0000 
     83 CA          1.5490   26.8517   31.5785 C.3       9 GLC5        0.0000 
     84 CA          8.2284   20.3146   33.7822 C.3       9 GLC5        0.0000 
     85 CA          7.7487   19.0884   31.0165 C.3       9 GLC5        0.0000 
     86 CA          0.8271   22.9419   29.3486 C.3       9 GLC5        0.0000 
     87 CA         -0.7069   26.3214   30.8369 C.3       9 GLC5        0.0000 
     88 CA          3.6555   24.0633   31.3311 C.3       9 GLC5        0.0000 
@<TRIPOS>BOND
@<TRIPOS>SUBSTRUCTURE
     1 SEL1        1 GROUP        1 Z    SEL  0     ROOT SEL Z 0
     2 LYL3        4 GROUP        1 Z    LYL  0     **** LYL Z 2
     3 GLL5        6 GROUP        1 Z    GLL  0     **** GLL Z 4
     4 SEP1       19 GROUP        1 Z    SEP  0     **** SEP Z 7
     5 LYP3       24 GROUP        1 Z    LYP  0     **** LYP Z 9
     6 GLP5       26 GROUP        1 Z    GLP  0     **** GLP Z 11
     7 SEC1       49 GROUP        1 Z    SEC  0     **** SEC Z 14
     8 LYC3       55 GROUP        1 Z    LYC  0     **** LYC Z 16
     9 GLC5       57 GROUP        1 Z    GLC  0     **** GLC Z 18
@<TRIPOS>SET

