@<TRIPOS>MOLECULE
2j4a_OEF_1_ligand
   41    42     1     0     0
SMALL
NO_CHARGES


@<TRIPOS>ATOM
     1 C1           6.4900    19.0420    32.8500 C.ar         1 OEF1461   0.0000
     2 C2           2.3540    21.7550    31.3060 C.ar         1 OEF1461   0.0000
     3 C3           5.8470    20.0310    33.6580 C.ar         1 OEF1461   0.0000
     4 C4           1.4270    22.6970    31.7290 C.ar         1 OEF1461   0.0000
     5 C5           4.5460    20.4980    33.3470 C.ar         1 OEF1461   0.0000
     6 C6           1.2520    23.9740    31.1480 C.ar         1 OEF1461   0.0000
     7 C7           3.7950    20.0060    32.2010 C.ar         1 OEF1461   0.0000
     8 C8           2.0540    24.3780    30.0420 C.ar         1 OEF1461   0.0000
     9 C9           4.4840    19.0210    31.4300 C.ar         1 OEF1461   0.0000
    10 C10          3.0060    23.4380    29.5910 C.ar         1 OEF1461   0.0000
    11 C11          5.7610    18.5620    31.7330 C.ar         1 OEF1461   0.0000
    12 C12          3.1370    22.1820    30.2080 C.ar         1 OEF1461   0.0000
    13 C13          7.8520    18.6100    33.2760 C.3          1 OEF1461   0.0000
    14 C14          8.2320    17.1570    32.9820 C.3          1 OEF1461   0.0000
    15 BR1          3.7580    21.8140    34.4760 Br           1 OEF1461   0.0000
    16 C15          0.2020    24.9570    31.6810 C.3          1 OEF1461   0.0000
    17 BR2          3.5920    18.3280    29.9380 Br           1 OEF1461   0.0000
    18 O2           2.4840    20.4930    31.9240 O.3          1 OEF1461   0.0000
    19 O1           1.9230    25.6120    29.4400 O.3          1 OEF1461   0.0000
    20 C18          9.6320    16.8450    33.4760 C.2          1 OEF1461   0.0000
    21 C16          0.9380    25.7200    32.8070 C.3          1 OEF1461   0.0000
    22 O3          10.5350    17.5640    33.0370 O.co2        1 OEF1461   0.0000
    23 O4           9.8080    15.9150    34.2490 O.co2        1 OEF1461  -1.0000
    24 C17         -1.0650    24.2530    32.1980 C.3          1 OEF1461   0.0000
    25 H1           6.3237    20.3994    34.4562 H            1 OEF1461   0.0000
    26 H2           0.8397    22.4549    32.5013 H            1 OEF1461   0.0000
    27 H3           3.5976    23.6700    28.8189 H            1 OEF1461   0.0000
    28 H4           6.1789    17.8706    31.1436 H            1 OEF1461   0.0000
    29 H5           3.8256    21.5519    29.8490 H            1 OEF1461   0.0000
    30 H6           7.9188    18.7472    34.2643 H            1 OEF1461   0.0000
    31 H7           8.5156    19.1971    32.8124 H            1 OEF1461   0.0000
    32 H8           8.1927    17.0030    31.9947 H            1 OEF1461   0.0000
    33 H9           7.5819    16.5508    33.4401 H            1 OEF1461   0.0000
    34 H10         -0.0486    25.5985    30.9559 H            1 OEF1461   0.0000
    35 H11          1.2440    26.2637    29.7781 H            1 OEF1461   0.0000
    36 H12          0.3187    26.3907    33.2152 H            1 OEF1461   0.0000
    37 H13          1.2372    25.0726    33.5080 H            1 OEF1461   0.0000
    38 H14          1.7341    26.1901    32.4259 H            1 OEF1461   0.0000
    39 H15         -1.7135    24.9369    32.5323 H            1 OEF1461   0.0000
    40 H16         -1.4839    23.7320    31.4543 H            1 OEF1461   0.0000
    41 H17         -0.8210    23.6326    32.9434 H            1 OEF1461   0.0000
@<TRIPOS>BOND
     1    1    3      ar
     2    1   11      ar
     3    1   13       1
     4    2    4      ar
     5    2   12      ar
     6    2   18       1
     7    3    5      ar
     8    4    6      ar
     9    5    7      ar
    10    5   15       1
    11    6    8      ar
    12    6   16       1
    13    7    9      ar
    14    7   18       1
    15    8   10      ar
    16    8   19       1
    17    9   11      ar
    18    9   17       1
    19   10   12      ar
    20   13   14       1
    21   14   20       1
    22   16   21       1
    23   16   24       1
    24   20   22      ar
    25   20   23      ar
    26    3   25       1
    27    4   26       1
    28   10   27       1
    29   11   28       1
    30   12   29       1
    31   13   30       1
    32   13   31       1
    33   14   32       1
    34   14   33       1
    35   16   34       1
    36   19   35       1
    37   21   36       1
    38   21   37       1
    39   21   38       1
    40   24   41       1
    41   24   39       1
    42   24   40       1
@<TRIPOS>SUBSTRUCTURE
     1 OEF1461     1 GROUP             4 A     OEF     0 **** OEF A1461
