2j4a_OEF_1_ligand
  -OEChem-08111718373D

 41 42  0     1  0  0  0  0  0999 V2000
    3.8256   21.5519   29.8490 H   0  0  0  0  0  0  0  0  0  0  0  0
    3.5976   23.6700   28.8189 H   0  0  0  0  0  0  0  0  0  0  0  0
    0.8397   22.4549   32.5013 H   0  0  0  0  0  0  0  0  0  0  0  0
    6.3237   20.3994   34.4562 H   0  0  0  0  0  0  0  0  0  0  0  0
    6.1789   17.8706   31.1436 H   0  0  0  0  0  0  0  0  0  0  0  0
    0.3187   26.3907   33.2152 H   0  0  0  0  0  0  0  0  0  0  0  0
    1.2372   25.0726   33.5080 H   0  0  0  0  0  0  0  0  0  0  0  0
    1.7341   26.1901   32.4259 H   0  0  0  0  0  0  0  0  0  0  0  0
   -1.7135   24.9369   32.5323 H   0  0  0  0  0  0  0  0  0  0  0  0
   -1.4839   23.7320   31.4543 H   0  0  0  0  0  0  0  0  0  0  0  0
   -0.8210   23.6326   32.9434 H   0  0  0  0  0  0  0  0  0  0  0  0
    7.9188   18.7472   34.2643 H   0  0  0  0  0  0  0  0  0  0  0  0
    8.5156   19.1971   32.8124 H   0  0  0  0  0  0  0  0  0  0  0  0
    8.1927   17.0030   31.9947 H   0  0  0  0  0  0  0  0  0  0  0  0
    7.5819   16.5508   33.4401 H   0  0  0  0  0  0  0  0  0  0  0  0
   -0.0486   25.5985   30.9559 H   0  0  0  0  0  0  0  0  0  0  0  0
    1.2440   26.2637   29.7781 H   0  0  0  0  0  0  0  0  0  0  0  0
    3.1370   22.1820   30.2080 C   0  0  0  0  0  0  0  0  0  0  0  0
    3.0060   23.4380   29.5910 C   0  0  0  0  0  0  0  0  0  0  0  0
    1.4270   22.6970   31.7290 C   0  0  0  0  0  0  0  0  0  0  0  0
    5.8470   20.0310   33.6580 C   0  0  0  0  0  0  0  0  0  0  0  0
    5.7610   18.5620   31.7330 C   0  0  0  0  0  0  0  0  0  0  0  0
    1.2520   23.9740   31.1480 C   0  0  0  0  0  0  0  0  0  0  0  0
    6.4900   19.0420   32.8500 C   0  0  0  0  0  0  0  0  0  0  0  0
    2.3540   21.7550   31.3060 C   0  0  0  0  0  0  0  0  0  0  0  0
    2.0540   24.3780   30.0420 C   0  0  0  0  0  0  0  0  0  0  0  0
    3.7950   20.0060   32.2010 C   0  0  0  0  0  0  0  0  0  0  0  0
    4.5460   20.4980   33.3470 C   0  0  0  0  0  0  0  0  0  0  0  0
    4.4840   19.0210   31.4300 C   0  0  0  0  0  0  0  0  0  0  0  0
    9.6320   16.8450   33.4760 C   0  0  0  0  0  0  0  0  0  0  0  0
    0.9380   25.7200   32.8070 C   0  0  0  0  0  0  0  0  0  0  0  0
   -1.0650   24.2530   32.1980 C   0  0  0  0  0  0  0  0  0  0  0  0
    7.8520   18.6100   33.2760 C   0  0  2  0  0  0  0  0  0  0  0  0
    8.2320   17.1570   32.9820 C   0  0  1  0  0  0  0  0  0  0  0  0
    0.2020   24.9570   31.6810 C   0  0  2  0  0  0  0  0  0  0  0  0
    9.8080   15.9150   34.2490 O   0  5  0  0  0  0  0  0  0  0  0  0
   10.5350   17.5640   33.0370 O   0  0  0  0  0  0  0  0  0  0  0  0
    1.9230   25.6120   29.4400 O   0  0  0  0  0  0  0  0  0  0  0  0
    2.4840   20.4930   31.9240 O   0  0  0  0  0  0  0  0  0  0  0  0
    3.7580   21.8140   34.4760 Br  0  0  0  0  0  0  0  0  0  0  0  0
    3.5920   18.3280   29.9380 Br  0  0  0  0  0  0  0  0  0  0  0  0
  1 18  1  0  0  0  0
  2 19  1  0  0  0  0
  3 20  1  0  0  0  0
  4 21  1  0  0  0  0
  5 22  1  0  0  0  0
  6 31  1  0  0  0  0
  7 31  1  0  0  0  0
  8 31  1  0  0  0  0
  9 32  1  0  0  0  0
 10 32  1  0  0  0  0
 11 32  1  0  0  0  0
 12 33  1  0  0  0  0
 13 33  1  0  0  0  0
 14 34  1  0  0  0  0
 15 34  1  0  0  0  0
 16 35  1  0  0  0  0
 17 38  1  0  0  0  0
 18 19  2  0  0  0  0
 18 25  1  0  0  0  0
 19 26  1  0  0  0  0
 20 23  1  0  0  0  0
 20 25  2  0  0  0  0
 21 24  2  0  0  0  0
 21 28  1  0  0  0  0
 22 24  1  0  0  0  0
 22 29  2  0  0  0  0
 23 26  2  0  0  0  0
 23 35  1  0  0  0  0
 24 33  1  0  0  0  0
 25 39  1  0  0  0  0
 26 38  1  0  0  0  0
 27 28  2  0  0  0  0
 27 29  1  0  0  0  0
 27 39  1  0  0  0  0
 28 40  1  0  0  0  0
 29 41  1  0  0  0  0
 30 34  1  0  0  0  0
 30 36  1  0  0  0  0
 30 37  2  0  0  0  0
 31 35  1  0  0  0  0
 32 35  1  0  0  0  0
 33 34  1  0  0  0  0
M  CHG  1  36  -1
M  END
> <scpdb_id>
2j4a_1

$$$$
