#    Name: 38664
#    Modification time : Tue Aug  8 23:29:41 2017

@<TRIPOS>MOLECULE
38664
   55     0     9     0     0
SMALL
NO_CHARGES


@<TRIPOS>ATOM
      1 N         -15.0320  -20.3640   28.4370 N.am      1 SEL1        0.0000 
      2 N         -17.1500  -21.2130   27.7450 N.am      1 SEL1        0.0000 
      3 N         -24.7780  -35.0950   16.4590 N.am      1 SEL1        0.0000 
      4 N         -27.3440  -32.6880   13.6070 N.am      1 SEL1        0.0000 
      5 N         -22.5930  -29.0050   19.4650 N.am      1 SEL1        0.0000 
      6 N         -20.3310  -30.1770   23.8830 N.am      1 SEL1        0.0000 
      7 O         -21.5360  -22.8340   24.6190 O.2       2 ALL2        0.0000 
      8 O         -19.7360  -20.8500   23.8270 O.2       2 ALL2        0.0000 
      9 O         -13.1570  -20.2950   27.0160 O.2       2 ALL2        0.0000 
     10 O         -20.2770  -30.2830   17.5150 O.2       2 ALL2        0.0000 
     11 CA        -25.1070  -28.2090   13.5260 C.3       3 GLL5        0.0000 
     12 CA        -24.4770  -25.9660   12.6000 C.3       3 GLL5        0.0000 
     13 CA        -21.6710  -26.4070   13.6050 C.3       3 GLL5        0.0000 
     14 CA        -21.8180  -31.1700   15.9220 C.3       3 GLL5        0.0000 
     15 CA        -22.5290  -30.4180   19.6470 C.3       3 GLL5        0.0000 
     16 N         -13.6420  -18.6780   29.9800 N.am      4 SEP1        0.0000 
     17 N         -19.2170  -18.6970   28.1220 N.am      4 SEP1        0.0000 
     18 N         -23.3190  -35.4640   18.8990 N.am      4 SEP1        0.0000 
     19 N         -29.2150  -33.8060   12.0760 N.am      4 SEP1        0.0000 
     20 N         -25.4360  -28.0850   18.9660 N.am      4 SEP1        0.0000 
     21 N         -22.6170  -26.6050   17.5460 N.am      4 SEP1        0.0000 
     22 N         -22.3600  -31.2720   25.4580 N.am      4 SEP1        0.0000 
     23 N         -20.2340  -28.4550   26.2940 N.am      4 SEP1        0.0000 
     24 O         -21.1820  -22.2930   27.2460 O.2       5 ALP2        0.0000 
     25 O         -21.1670  -20.4640   26.0460 O.2       5 ALP2        0.0000 
     26 O         -11.0520  -19.1150   28.7750 O.2       5 ALP2        0.0000 
     27 O         -19.3890  -33.0120   18.5250 O.2       5 ALP2        0.0000 
     28 CA        -29.0310  -27.8550   13.5670 C.3       6 GLP5        0.0000 
     29 CA        -24.5870  -23.7650   16.2260 C.3       6 GLP5        0.0000 
     30 CA        -25.1210  -22.4600   11.7540 C.3       6 GLP5        0.0000 
     31 CA        -24.1830  -27.6200    9.3300 C.3       6 GLP5        0.0000 
     32 CA        -18.6190  -24.4240   12.7830 C.3       6 GLP5        0.0000 
     33 CA        -20.1140  -35.1360   14.9660 C.3       6 GLP5        0.0000 
     34 CA        -25.8140  -32.8210   20.4770 C.3       6 GLP5        0.0000 
     35 CA        -24.7920  -29.5880   22.4940 C.3       6 GLP5        0.0000 
     36 N         -14.3370  -19.5210   29.2085 N.am      7 SEC1        0.0000 
     37 N         -18.1835  -19.9550   27.9335 N.am      7 SEC1        0.0000 
     38 N         -24.0485  -35.2795   17.6790 N.am      7 SEC1        0.0000 
     39 N         -28.2795  -33.2470   12.8415 N.am      7 SEC1        0.0000 
     40 N         -24.0145  -28.5450   19.2155 N.am      7 SEC1        0.0000 
     41 N         -22.6050  -27.8050   18.5055 N.am      7 SEC1        0.0000 
     42 N         -21.3455  -30.7245   24.6705 N.am      7 SEC1        0.0000 
     43 N         -20.2825  -29.3160   25.0885 N.am      7 SEC1        0.0000 
     44 O         -21.3590  -22.5635   25.9325 O.2       8 ALC2        0.0000 
     45 O         -20.4515  -20.6570   24.9365 O.2       8 ALC2        0.0000 
     46 O         -12.1045  -19.7050   27.8955 O.2       8 ALC2        0.0000 
     47 O         -19.8330  -31.6475   18.0200 O.2       8 ALC2        0.0000 
     48 CA        -27.0690  -28.0320   13.5465 C.3       9 GLC5        0.0000 
     49 CA        -24.5320  -24.8655   14.4130 C.3       9 GLC5        0.0000 
     50 CA        -24.7990  -24.2130   12.1770 C.3       9 GLC5        0.0000 
     51 CA        -24.3300  -26.7930   10.9650 C.3       9 GLC5        0.0000 
     52 CA        -20.1450  -25.4155   13.1940 C.3       9 GLC5        0.0000 
     53 CA        -20.9660  -33.1530   15.4440 C.3       9 GLC5        0.0000 
     54 CA        -24.1453  -31.8035   19.7290 C.3       9 GLC5        0.0000 
     55 CA        -23.3705  -30.0995   21.2952 C.3       9 GLC5        0.0000 
@<TRIPOS>BOND
@<TRIPOS>SUBSTRUCTURE
     1 SEL1        1 GROUP        1 Z    SEL  0     ROOT SEL Z 0
     2 ALL2        7 GROUP        1 Z    ALL  0     **** ALL Z 1
     3 GLL5       11 GROUP        1 Z    GLL  0     **** GLL Z 4
     4 SEP1       16 GROUP        1 Z    SEP  0     **** SEP Z 7
     5 ALP2       24 GROUP        1 Z    ALP  0     **** ALP Z 8
     6 GLP5       28 GROUP        1 Z    GLP  0     **** GLP Z 11
     7 SEC1       36 GROUP        1 Z    SEC  0     **** SEC Z 14
     8 ALC2       44 GROUP        1 Z    ALC  0     **** ALC Z 15
     9 GLC5       48 GROUP        1 Z    GLC  0     **** GLC Z 18
@<TRIPOS>SET

