4b66_FAD_1_ligand
  -OEChem-08111718373D

 84 89  0     1  0  0  0  0  0999 V2000
  -26.0387  -28.0560   13.1965 H   0  0  0  0  0  0  0  0  0  0  0  0
  -21.4908  -28.8031   14.8245 H   0  0  0  0  0  0  0  0  0  0  0  0
  -16.7069  -20.4689   29.5773 H   0  0  0  0  0  0  0  0  0  0  0  0
  -16.4400  -22.4338   23.5032 H   0  0  0  0  0  0  0  0  0  0  0  0
  -20.6068  -23.5103   22.9396 H   0  0  0  0  0  0  0  0  0  0  0  0
  -18.6023  -22.3918   23.1961 H   0  0  0  0  0  0  0  0  0  0  0  0
  -20.4970  -24.7772   25.2718 H   0  0  0  0  0  0  0  0  0  0  0  0
  -19.1864  -22.0612   25.9987 H   0  0  0  0  0  0  0  0  0  0  0  0
  -23.6662  -25.3841   12.5370 H   0  0  0  0  0  0  0  0  0  0  0  0
  -24.8043  -26.1824   11.6802 H   0  0  0  0  0  0  0  0  0  0  0  0
  -25.1941  -25.4850   13.1044 H   0  0  0  0  0  0  0  0  0  0  0  0
  -20.8072  -26.7199   13.9999 H   0  0  0  0  0  0  0  0  0  0  0  0
  -21.5513  -26.2481   12.6250 H   0  0  0  0  0  0  0  0  0  0  0  0
  -21.9515  -25.5560   14.0489 H   0  0  0  0  0  0  0  0  0  0  0  0
  -18.3930  -25.4118   23.4752 H   0  0  0  0  0  0  0  0  0  0  0  0
  -19.4571  -26.4238   24.1897 H   0  0  0  0  0  0  0  0  0  0  0  0
  -21.1065  -30.8878   15.2785 H   0  0  0  0  0  0  0  0  0  0  0  0
  -21.7402  -32.1518   16.0955 H   0  0  0  0  0  0  0  0  0  0  0  0
  -20.5062  -30.7505   20.0433 H   0  0  0  0  0  0  0  0  0  0  0  0
  -21.4938  -31.7324   20.8961 H   0  0  0  0  0  0  0  0  0  0  0  0
  -22.0734  -29.4913   17.1098 H   0  0  0  0  0  0  0  0  0  0  0  0
  -23.3749  -30.7094   20.0938 H   0  0  0  0  0  0  0  0  0  0  0  0
  -21.9554  -32.0230   18.4739 H   0  0  0  0  0  0  0  0  0  0  0  0
  -26.7183  -34.6561   15.0392 H   0  0  0  0  0  0  0  0  0  0  0  0
  -12.6083  -19.8868   27.7456 H   0  0  0  0  0  0  0  0  0  0  0  0
  -12.7441  -20.4815   26.1245 H   0  0  0  0  0  0  0  0  0  0  0  0
  -21.2618  -22.5591   25.5405 H   0  0  0  0  0  0  0  0  0  0  0  0
  -20.3524  -20.6564   24.5903 H   0  0  0  0  0  0  0  0  0  0  0  0
  -19.9851  -31.0644   18.0665 H   0  0  0  0  0  0  0  0  0  0  0  0
  -22.1837  -28.5483   20.2549 H   0  0  0  0  0  0  0  0  0  0  0  0
  -23.7777  -32.3249   17.4073 H   0  0  0  0  0  0  0  0  0  0  0  0
  -25.1070  -28.2090   13.5260 C   0  0  0  0  0  0  0  0  0  0  0  0
  -22.4220  -28.6540   14.4920 C   0  0  0  0  0  0  0  0  0  0  0  0
  -16.3320  -20.6640   28.6710 C   0  0  0  0  0  0  0  0  0  0  0  0
  -16.2910  -22.0810   24.4270 C   0  0  0  0  0  0  0  0  0  0  0  0
  -24.1260  -27.2380   13.3190 C   0  0  0  0  0  0  0  0  0  0  0  0
  -22.7360  -27.4630   13.8190 C   0  0  0  0  0  0  0  0  0  0  0  0
  -24.7880  -29.3960   14.1940 C   0  0  0  0  0  0  0  0  0  0  0  0
  -15.2940  -21.2010   26.1700 C   0  0  0  0  0  0  0  0  0  0  0  0
  -23.3970  -29.6350   14.7030 C   0  0  0  0  0  0  0  0  0  0  0  0
  -25.3490  -31.6450   14.4950 C   0  0  0  0  0  0  0  0  0  0  0  0
  -16.6940  -21.5040   26.5020 C   0  0  0  0  0  0  0  0  0  0  0  0
  -14.4580  -20.5950   27.2350 C   0  0  0  0  0  0  0  0  0  0  0  0
  -26.3290  -32.7710   14.3750 C   0  0  0  0  0  0  0  0  0  0  0  0
  -24.0620  -31.9270   15.1780 C   0  0  0  0  0  0  0  0  0  0  0  0
  -24.9300  -34.0450   15.7950 C   0  0  0  0  0  0  0  0  0  0  0  0
  -20.3750  -23.2540   23.8780 C   0  0  1  0  0  0  0  0  0  0  0  0
  -19.2670  -22.2110   23.9210 C   0  0  2  0  0  0  0  0  0  0  0  0
  -19.7950  -24.4230   24.6540 C   0  0  1  0  0  0  0  0  0  0  0  0
  -18.6380  -22.4970   25.2850 C   0  0  2  0  0  0  0  0  0  0  0  0
  -24.4770  -25.9660   12.6000 C   0  0  0  0  0  0  0  0  0  0  0  0
  -21.6710  -26.4070   13.6050 C   0  0  0  0  0  0  0  0  0  0  0  0
  -19.3520  -25.5440   23.7260 C   0  0  1  0  0  0  0  0  0  0  0  0
  -21.8180  -31.1700   15.9220 C   0  0  1  0  0  0  0  0  0  0  0  0
  -21.3690  -30.8040   20.5460 C   0  0  2  0  0  0  0  0  0  0  0  0
  -21.6770  -30.4030   17.2180 C   0  0  1  0  0  0  0  0  0  0  0  0
  -22.5290  -30.4180   19.6470 C   0  0  2  0  0  0  0  0  0  0  0  0
  -22.4240  -31.1540   18.3150 C   0  0  1  0  0  0  0  0  0  0  0  0
  -17.1500  -21.2130   27.7450 N   0  0  0  0  0  0  0  0  0  0  0  0
  -15.0320  -20.3640   28.4370 N   0  0  0  0  0  0  0  0  0  0  0  0
  -15.1130  -21.5750   24.8880 N   0  0  0  0  0  0  0  0  0  0  0  0
  -25.7290  -30.3520   14.3750 N   0  0  0  0  0  0  0  0  0  0  0  0
  -23.9310  -33.1150   15.8290 N   0  0  0  0  0  0  0  0  0  0  0  0
  -26.0610  -33.9030   15.0670 N   0  0  0  0  0  0  0  0  0  0  0  0
  -17.2300  -22.0370   25.4000 N   0  0  0  0  0  0  0  0  0  0  0  0
  -23.1390  -30.8620   15.3740 N   0  0  0  0  0  0  0  0  0  0  0  0
  -13.1570  -20.2950   27.0160 N   0  0  0  0  0  0  0  0  0  0  0  0
  -19.2490  -26.9560   20.6150 O   0  5  0  0  0  0  0  0  0  0  0  0
  -20.3310  -30.1770   23.8830 O   0  5  0  0  0  0  0  0  0  0  0  0
  -27.3440  -32.6880   13.6070 O   0  0  0  0  0  0  0  0  0  0  0  0
  -24.7780  -35.0950   16.4590 O   0  0  0  0  0  0  0  0  0  0  0  0
  -21.7970  -26.8750   21.1640 O   0  0  0  0  0  0  0  0  0  0  0  0
  -18.8440  -29.9310   21.7540 O   0  0  0  0  0  0  0  0  0  0  0  0
  -18.7060  -23.9140   25.4390 O   0  0  0  0  0  0  0  0  0  0  0  0
  -21.5360  -22.8340   24.6190 O   0  0  0  0  0  0  0  0  0  0  0  0
  -19.7360  -20.8500   23.8270 O   0  0  0  0  0  0  0  0  0  0  0  0
  -20.2770  -30.2830   17.5150 O   0  0  0  0  0  0  0  0  0  0  0  0
  -22.5930  -29.0050   19.4650 O   0  0  0  0  0  0  0  0  0  0  0  0
  -23.7620  -31.4390   17.8710 O   0  0  0  0  0  0  0  0  0  0  0  0
  -20.1600  -25.5240   22.5510 O   0  0  0  0  0  0  0  0  0  0  0  0
  -21.3780  -29.8700   21.6110 O   0  0  0  0  0  0  0  0  0  0  0  0
  -20.1650  -28.0020   22.7880 O   0  0  0  0  0  0  0  0  0  0  0  0
  -20.3540  -26.8630   21.6500 P   0  0  2  0  0  0  0  0  0  0  0  0
  -20.0910  -29.5900   22.5230 P   0  0  1  0  0  0  0  0  0  0  0  0
  1 32  1  0  0  0  0
  2 33  1  0  0  0  0
  3 34  1  0  0  0  0
  4 35  1  0  0  0  0
  5 47  1  0  0  0  0
  6 48  1  0  0  0  0
  7 49  1  0  0  0  0
  8 50  1  0  0  0  0
  9 51  1  0  0  0  0
 10 51  1  0  0  0  0
 11 51  1  0  0  0  0
 12 52  1  0  0  0  0
 13 52  1  0  0  0  0
 14 52  1  0  0  0  0
 15 53  1  0  0  0  0
 16 53  1  0  0  0  0
 17 54  1  0  0  0  0
 18 54  1  0  0  0  0
 19 55  1  0  0  0  0
 20 55  1  0  0  0  0
 21 56  1  0  0  0  0
 22 57  1  0  0  0  0
 23 58  1  0  0  0  0
 24 64  1  0  0  0  0
 25 67  1  0  0  0  0
 26 67  1  0  0  0  0
 27 75  1  0  0  0  0
 28 76  1  0  0  0  0
 29 77  1  0  0  0  0
 30 78  1  0  0  0  0
 31 79  1  0  0  0  0
 32 36  1  0  0  0  0
 32 38  2  0  0  0  0
 33 37  1  0  0  0  0
 33 40  2  0  0  0  0
 34 59  1  0  0  0  0
 34 60  2  0  0  0  0
 35 61  2  0  0  0  0
 35 65  1  0  0  0  0
 36 37  2  0  0  0  0
 36 51  1  0  0  0  0
 37 52  1  0  0  0  0
 38 40  1  0  0  0  0
 38 62  1  0  0  0  0
 39 42  1  0  0  0  0
 39 43  2  0  0  0  0
 39 61  1  0  0  0  0
 40 66  1  0  0  0  0
 41 44  1  0  0  0  0
 41 45  1  0  0  0  0
 41 62  2  0  0  0  0
 42 59  2  0  0  0  0
 42 65  1  0  0  0  0
 43 60  1  0  0  0  0
 43 67  1  0  0  0  0
 44 64  1  0  0  0  0
 44 70  2  0  0  0  0
 45 63  2  0  0  0  0
 45 66  1  0  0  0  0
 46 63  1  0  0  0  0
 46 64  1  0  0  0  0
 46 71  2  0  0  0  0
 47 48  1  0  0  0  0
 47 49  1  0  0  0  0
 47 75  1  0  0  0  0
 48 50  1  0  0  0  0
 48 76  1  0  0  0  0
 49 53  1  0  0  0  0
 49 74  1  0  0  0  0
 50 65  1  0  0  0  0
 50 74  1  0  0  0  0
 53 80  1  0  0  0  0
 54 56  1  0  0  0  0
 54 66  1  0  0  0  0
 55 57  1  0  0  0  0
 55 81  1  0  0  0  0
 56 58  1  0  0  0  0
 56 77  1  0  0  0  0
 57 58  1  0  0  0  0
 57 78  1  0  0  0  0
 58 79  1  0  0  0  0
 68 83  1  0  0  0  0
 69 84  1  0  0  0  0
 72 83  2  0  0  0  0
 73 84  2  0  0  0  0
 80 83  1  0  0  0  0
 81 84  1  0  0  0  0
 82 83  1  0  0  0  0
 82 84  1  0  0  0  0
M  CHG  2  68  -1  69  -1
M  END
> <scpdb_id>
4b66_1

$$$$
