@<TRIPOS>MOLECULE
4b66_FAD_1_ligand
   84    89     1     0     0
SMALL
NO_CHARGES


@<TRIPOS>ATOM
     1 PA         -20.3540   -26.8630    21.6500 P.3          1 FAD1504   0.0000
     2 O1A        -21.7970   -26.8750    21.1640 O.co2        1 FAD1504   0.0000
     3 O2A        -19.2490   -26.9560    20.6150 O.co2        1 FAD1504  -1.0000
     4 O5B        -20.1600   -25.5240    22.5510 O.3          1 FAD1504   0.0000
     5 C5B        -19.3520   -25.5440    23.7260 C.3          1 FAD1504   0.0000
     6 C4B        -19.7950   -24.4230    24.6540 C.3          1 FAD1504   0.0000
     7 O4B        -18.7060   -23.9140    25.4390 O.3          1 FAD1504   0.0000
     8 C3B        -20.3750   -23.2540    23.8780 C.3          1 FAD1504   0.0000
     9 O3B        -21.5360   -22.8340    24.6190 O.3          1 FAD1504   0.0000
    10 C2B        -19.2670   -22.2110    23.9210 C.3          1 FAD1504   0.0000
    11 O2B        -19.7360   -20.8500    23.8270 O.3          1 FAD1504   0.0000
    12 C1B        -18.6380   -22.4970    25.2850 C.3          1 FAD1504   0.0000
    13 N9A        -17.2300   -22.0370    25.4000 N.pl3        1 FAD1504   0.0000
    14 C8A        -16.2910   -22.0810    24.4270 C.2          1 FAD1504   0.0000
    15 N7A        -15.1130   -21.5750    24.8880 N.2          1 FAD1504   0.0000
    16 C5A        -15.2940   -21.2010    26.1700 C.ar         1 FAD1504   0.0000
    17 C6A        -14.4580   -20.5950    27.2350 C.ar         1 FAD1504   0.0000
    18 N6A        -13.1570   -20.2950    27.0160 N.pl3        1 FAD1504   0.0000
    19 N1A        -15.0320   -20.3640    28.4370 N.ar         1 FAD1504   0.0000
    20 C2A        -16.3320   -20.6640    28.6710 C.ar         1 FAD1504   0.0000
    21 N3A        -17.1500   -21.2130    27.7450 N.ar         1 FAD1504   0.0000
    22 C4A        -16.6940   -21.5040    26.5020 C.ar         1 FAD1504   0.0000
    23 N1         -23.9310   -33.1150    15.8290 N.2          1 FAD1504   0.0000
    24 C2         -24.9300   -34.0450    15.7950 C.2          1 FAD1504   0.0000
    25 O2         -24.7780   -35.0950    16.4590 O.2          1 FAD1504   0.0000
    26 N3         -26.0610   -33.9030    15.0670 N.pl3        1 FAD1504   0.0000
    27 C4         -26.3290   -32.7710    14.3750 C.2          1 FAD1504   0.0000
    28 O4         -27.3440   -32.6880    13.6070 O.2          1 FAD1504   0.0000
    29 C4X        -25.3490   -31.6450    14.4950 C.2          1 FAD1504   0.0000
    30 N5         -25.7290   -30.3520    14.3750 N.2          1 FAD1504   0.0000
    31 C5X        -24.7880   -29.3960    14.1940 C.ar         1 FAD1504   0.0000
    32 C6         -25.1070   -28.2090    13.5260 C.ar         1 FAD1504   0.0000
    33 C7         -24.1260   -27.2380    13.3190 C.ar         1 FAD1504   0.0000
    34 C7M        -24.4770   -25.9660    12.6000 C.3          1 FAD1504   0.0000
    35 C8         -22.7360   -27.4630    13.8190 C.ar         1 FAD1504   0.0000
    36 C8M        -21.6710   -26.4070    13.6050 C.3          1 FAD1504   0.0000
    37 C9         -22.4220   -28.6540    14.4920 C.ar         1 FAD1504   0.0000
    38 C9A        -23.3970   -29.6350    14.7030 C.ar         1 FAD1504   0.0000
    39 N10        -23.1390   -30.8620    15.3740 N.pl3        1 FAD1504   0.0000
    40 C10        -24.0620   -31.9270    15.1780 C.2          1 FAD1504   0.0000
    41 C1'        -21.8180   -31.1700    15.9220 C.3          1 FAD1504   0.0000
    42 C2'        -21.6770   -30.4030    17.2180 C.3          1 FAD1504   0.0000
    43 O2'        -20.2770   -30.2830    17.5150 O.3          1 FAD1504   0.0000
    44 C3'        -22.4240   -31.1540    18.3150 C.3          1 FAD1504   0.0000
    45 O3'        -23.7620   -31.4390    17.8710 O.3          1 FAD1504   0.0000
    46 C4'        -22.5290   -30.4180    19.6470 C.3          1 FAD1504   0.0000
    47 O4'        -22.5930   -29.0050    19.4650 O.3          1 FAD1504   0.0000
    48 C5'        -21.3690   -30.8040    20.5460 C.3          1 FAD1504   0.0000
    49 O5'        -21.3780   -29.8700    21.6110 O.3          1 FAD1504   0.0000
    50 P          -20.0910   -29.5900    22.5230 P.3          1 FAD1504   0.0000
    51 O1P        -18.8440   -29.9310    21.7540 O.co2        1 FAD1504   0.0000
    52 O2P        -20.3310   -30.1770    23.8830 O.co2        1 FAD1504  -1.0000
    53 O3P        -20.1650   -28.0020    22.7880 O.3          1 FAD1504   0.0000
    54 H5B1       -18.3930   -25.4118    23.4752 H            1 FAD1504   0.0000
    55 H5B2       -19.4571   -26.4238    24.1897 H            1 FAD1504   0.0000
    56 H4B        -20.4970   -24.7772    25.2718 H            1 FAD1504   0.0000
    57 H3B        -20.6068   -23.5103    22.9396 H            1 FAD1504   0.0000
    58 H5         -21.2618   -22.5591    25.5405 H            1 FAD1504   0.0000
    59 H2B        -18.6023   -22.3918    23.1961 H            1 FAD1504   0.0000
    60 H7         -20.3524   -20.6564    24.5903 H            1 FAD1504   0.0000
    61 H1B        -19.1864   -22.0612    25.9987 H            1 FAD1504   0.0000
    62 H8A        -16.4400   -22.4338    23.5032 H            1 FAD1504   0.0000
    63 H6A1       -12.6083   -19.8868    27.7456 H            1 FAD1504   0.0000
    64 H6A2       -12.7441   -20.4815    26.1245 H            1 FAD1504   0.0000
    65 H2A        -16.7069   -20.4689    29.5773 H            1 FAD1504   0.0000
    66 H13        -26.7183   -34.6561    15.0392 H            1 FAD1504   0.0000
    67 H14        -26.0387   -28.0560    13.1965 H            1 FAD1504   0.0000
    68 H7M1       -23.6662   -25.3841    12.5370 H            1 FAD1504   0.0000
    69 H7M2       -24.8043   -26.1824    11.6802 H            1 FAD1504   0.0000
    70 H7M3       -25.1941   -25.4850    13.1044 H            1 FAD1504   0.0000
    71 H8M1       -20.8072   -26.7199    13.9999 H            1 FAD1504   0.0000
    72 H8M2       -21.5513   -26.2481    12.6250 H            1 FAD1504   0.0000
    73 H8M3       -21.9515   -25.5560    14.0489 H            1 FAD1504   0.0000
    74 H21        -21.4908   -28.8031    14.8245 H            1 FAD1504   0.0000
    75 H1'1       -21.1065   -30.8878    15.2785 H            1 FAD1504   0.0000
    76 H1'2       -21.7402   -32.1518    16.0955 H            1 FAD1504   0.0000
    77 H2'        -22.0734   -29.4913    17.1098 H            1 FAD1504   0.0000
    78 H25        -19.9851   -31.0644    18.0665 H            1 FAD1504   0.0000
    79 H3'        -21.9554   -32.0230    18.4739 H            1 FAD1504   0.0000
    80 H27        -23.7777   -32.3249    17.4073 H            1 FAD1504   0.0000
    81 H4'        -23.3749   -30.7094    20.0938 H            1 FAD1504   0.0000
    82 H29        -22.1837   -28.5483    20.2549 H            1 FAD1504   0.0000
    83 H5'1       -20.5062   -30.7505    20.0433 H            1 FAD1504   0.0000
    84 H5'2       -21.4938   -31.7324    20.8961 H            1 FAD1504   0.0000
@<TRIPOS>BOND
     1    1    2      ar
     2    1    3      ar
     3    1    4       1
     4    1   53       1
     5    4    5       1
     6    5    6       1
     7    6    7       1
     8    6    8       1
     9    7   12       1
    10    8    9       1
    11    8   10       1
    12   10   11       1
    13   10   12       1
    14   12   13       1
    15   13   14       1
    16   13   22       1
    17   14   15       2
    18   15   16       1
    19   16   17      ar
    20   16   22      ar
    21   17   18       1
    22   17   19      ar
    23   19   20      ar
    24   20   21      ar
    25   21   22      ar
    26   23   24       1
    27   23   40       2
    28   24   25       2
    29   24   26       1
    30   26   27       1
    31   27   28       2
    32   27   29       1
    33   29   30       2
    34   29   40       1
    35   30   31       1
    36   31   32      ar
    37   31   38      ar
    38   32   33      ar
    39   33   34       1
    40   33   35      ar
    41   35   36       1
    42   35   37      ar
    43   37   38      ar
    44   38   39       1
    45   39   40       1
    46   39   41       1
    47   41   42       1
    48   42   43       1
    49   42   44       1
    50   44   45       1
    51   44   46       1
    52   46   47       1
    53   46   48       1
    54   48   49       1
    55   49   50       1
    56   50   51      ar
    57   50   52      ar
    58   50   53       1
    59   48   84       1
    60    5   54       1
    61    5   55       1
    62    6   56       1
    63    8   57       1
    64    9   58       1
    65   10   59       1
    66   11   60       1
    67   12   61       1
    68   14   62       1
    69   18   63       1
    70   18   64       1
    71   20   65       1
    72   26   66       1
    73   32   67       1
    74   34   68       1
    75   34   69       1
    76   34   70       1
    77   36   71       1
    78   36   72       1
    79   36   73       1
    80   37   74       1
    81   41   75       1
    82   41   76       1
    83   42   77       1
    84   43   78       1
    85   44   79       1
    86   45   80       1
    87   46   81       1
    88   47   82       1
    89   48   83       1
@<TRIPOS>SUBSTRUCTURE
     1 FAD1504     1 GROUP             4 A     FAD     0 **** FAD A1504
