#    Name: 20832
#    Modification time : Wed Aug  9 01:22:21 2017

@<TRIPOS>MOLECULE
20832
   47     0    18     0     0
SMALL
NO_CHARGES


@<TRIPOS>ATOM
      1 N          -2.7520   24.0140   63.0460 N.am      1 SEL1        0.0000 
      2 N          -1.4120   23.0230   64.9470 N.am      1 SEL1        0.0000 
      3 N          -1.3050   21.0140   62.2140 N.am      1 SEL1        0.0000 
      4 N          -2.2120   20.2400   58.0740 N.am      1 SEL1        0.0000 
      5 N          -2.6790   18.8540   54.6000 N.am      1 SEL1        0.0000 
      6 O          -2.5710   21.1680   55.1140 O.2       2 ALL2        0.0000 
      7 NZ         -2.7520   24.0140   63.0460 N.4       3 LYL3        0.0000 
      8 NZ         -5.2900   19.7490   63.6010 N.4       3 LYL3        0.0000 
      9 CA         -4.7540   16.3620   61.9340 C.3       4 GLL5        0.0000 
     10 CA         -3.5880   15.8730   61.0380 C.3       4 GLL5        0.0000 
     11 CA         -2.1870   16.8780   59.4300 C.3       4 GLL5        0.0000 
     12 Zn         -1.4120   23.0230   64.9470 Zn        5 ZIL7        0.0000 
     13 Zn         -1.3090   20.1950   64.6230 Zn        5 ZIL7        0.0000 
     14 CZ         -2.5357   18.5288   55.9150 C.ar      6 PHL6        0.0000 
     15 N          -4.2380   21.8550   61.1480 N.am      7 SEP1        0.0000 
     16 N          -1.8720   26.5420   62.2040 N.am      7 SEP1        0.0000 
     17 N          -0.3980   25.6430   63.7830 N.am      7 SEP1        0.0000 
     18 N           1.1390   21.1590   63.1020 N.am      7 SEP1        0.0000 
     19 N          -1.8570   23.2200   58.3470 N.am      7 SEP1        0.0000 
     20 N          -2.3760   19.3730   51.8810 N.am      7 SEP1        0.0000 
     21 O          -2.1120   24.0250   56.2770 O.2       8 ALP2        0.0000 
     22 O          -3.1000   21.4780   52.2700 O.2       8 ALP2        0.0000 
     23 NZ         -0.7360   26.6310   62.9130 N.4       9 LYP3        0.0000 
     24 NZ         -5.4420   21.4450   60.7550 N.4       9 LYP3        0.0000 
     25 CA         -7.4680   14.8890   64.9440 C.3      10 GLP5        0.0000 
     26 CA         -5.7080   13.1890   59.6630 C.3      10 GLP5        0.0000 
     27 CA          0.8300   17.9400   57.1780 C.3      10 GLP5        0.0000 
     28 Zn         -0.0670   21.5600   65.6870 Zn       11 ZIP7        0.0000 
     29 CZ          0.9965   17.6125   55.8173 C.ar     12 PHP6        0.0000 
     30 N          -3.4950   22.9345   62.0970 N.am     13 SEC1        0.0000 
     31 N          -2.3120   25.2780   62.6250 N.am     13 SEC1        0.0000 
     32 N          -1.5750   24.8285   63.4145 N.am     13 SEC1        0.0000 
     33 N          -0.9050   24.3330   64.3650 N.am     13 SEC1        0.0000 
     34 N          -2.7715   21.4345   61.6810 N.am     13 SEC1        0.0000 
     35 N          -0.0830   21.0865   62.6580 N.am     13 SEC1        0.0000 
     36 N          -2.0345   21.7300   58.2105 N.am     13 SEC1        0.0000 
     37 N          -2.5275   19.1135   53.2405 N.am     13 SEC1        0.0000 
     38 O          -2.3415   22.5965   55.6955 O.2      14 ALC2        0.0000 
     39 O          -2.8355   21.3230   53.6920 O.2      14 ALC2        0.0000 
     40 NZ         -1.7440   25.3225   62.9795 N.4      15 LYC3        0.0000 
     41 NZ         -5.3660   20.5970   62.1780 N.4      15 LYC3        0.0000 
     42 CA         -6.1110   15.6255   63.4390 C.3      16 GLC5        0.0000 
     43 CA         -4.9395   14.6532   60.5745 C.3      16 GLC5        0.0000 
     44 CA         -0.5355   17.4890   58.6442 C.3      16 GLC5        0.0000 
     45 Zn         -0.7395   22.2915   65.3170 Zn       17 ZIC7        0.0000 
     46 Zn         -0.6880   20.8775   65.1550 Zn       17 ZIC7        0.0000 
     47 CZ         -0.7696   18.0707   55.8662 C.ar     18 PHC6        0.0000 
@<TRIPOS>BOND
@<TRIPOS>SUBSTRUCTURE
     1 SEL1        1 GROUP        1 Z    SEL  0     ROOT SEL Z 0
     2 ALL2        6 GROUP        1 Z    ALL  0     **** ALL Z 1
     3 LYL3        7 GROUP        1 Z    LYL  0     **** LYL Z 2
     4 GLL5        9 GROUP        1 Z    GLL  0     **** GLL Z 4
     5 ZIL7       12 GROUP        1 Z    ZIL  0     **** ZIL Z 5
     6 PHL6       14 GROUP        1 Z    PHL  0     **** PHL Z 6
     7 SEP1       15 GROUP        1 Z    SEP  0     **** SEP Z 7
     8 ALP2       21 GROUP        1 Z    ALP  0     **** ALP Z 8
     9 LYP3       23 GROUP        1 Z    LYP  0     **** LYP Z 9
    10 GLP5       25 GROUP        1 Z    GLP  0     **** GLP Z 11
    11 ZIP7       28 GROUP        1 Z    ZIP  0     **** ZIP Z 12
    12 PHP6       29 GROUP        1 Z    PHP  0     **** PHP Z 13
    13 SEC1       30 GROUP        1 Z    SEC  0     **** SEC Z 14
    14 ALC2       38 GROUP        1 Z    ALC  0     **** ALC Z 15
    15 LYC3       40 GROUP        1 Z    LYC  0     **** LYC Z 16
    16 GLC5       42 GROUP        1 Z    GLC  0     **** GLC Z 18
    17 ZIC7       45 GROUP        1 Z    ZIC  0     **** ZIC Z 19
    18 PHC6       47 GROUP        1 Z    PHC  0     **** PHC Z 20
@<TRIPOS>SET

