2xje_ATP_2_ligand
  -OEChem-08111718373D

 43 45  0     1  0  0  0  0  0999 V2000
   -2.8244   16.8615   54.2728 H   0  0  0  0  0  0  0  0  0  0  0  0
   -2.0001   19.5903   60.0440 H   0  0  0  0  0  0  0  0  0  0  0  0
   -2.2730   16.3425   62.6126 H   0  0  0  0  0  0  0  0  0  0  0  0
   -2.0081   18.0648   61.0978 H   0  0  0  0  0  0  0  0  0  0  0  0
   -3.7109   14.8885   60.9130 H   0  0  0  0  0  0  0  0  0  0  0  0
   -1.6700   16.1491   58.9812 H   0  0  0  0  0  0  0  0  0  0  0  0
   -5.6147   16.0963   61.4998 H   0  0  0  0  0  0  0  0  0  0  0  0
   -4.6758   15.9106   62.8229 H   0  0  0  0  0  0  0  0  0  0  0  0
   -2.6797   21.4059   54.1488 H   0  0  0  0  0  0  0  0  0  0  0  0
   -2.4822   21.8901   55.8000 H   0  0  0  0  0  0  0  0  0  0  0  0
   -0.5984   14.9146   61.8962 H   0  0  0  0  0  0  0  0  0  0  0  0
    0.1609   16.8078   59.9629 H   0  0  0  0  0  0  0  0  0  0  0  0
   -2.6920   17.5680   54.9680 C   0  0  0  0  0  0  0  0  0  0  0  0
   -2.1220   19.3540   59.0800 C   0  0  0  0  0  0  0  0  0  0  0  0
   -2.3830   19.5480   56.9180 C   0  0  0  0  0  0  0  0  0  0  0  0
   -2.3850   18.1300   57.2600 C   0  0  0  0  0  0  0  0  0  0  0  0
   -2.5440   19.8680   55.4920 C   0  0  0  0  0  0  0  0  0  0  0  0
   -2.2090   16.0720   61.6520 C   0  0  1  0  0  0  0  0  0  0  0  0
   -1.6150   17.1980   60.7910 C   0  0  2  0  0  0  0  0  0  0  0  0
   -3.5880   15.8730   61.0380 C   0  0  1  0  0  0  0  0  0  0  0  0
   -2.1870   16.8780   59.4300 C   0  0  2  0  0  0  0  0  0  0  0  0
   -4.7540   16.3620   61.9340 C   0  0  1  0  0  0  0  0  0  0  0  0
   -2.5310   17.2050   56.2520 N   0  0  0  0  0  0  0  0  0  0  0  0
   -2.6790   18.8540   54.6000 N   0  0  0  0  0  0  0  0  0  0  0  0
   -2.2120   20.2400   58.0740 N   0  0  0  0  0  0  0  0  0  0  0  0
   -2.2200   18.1040   58.5990 N   0  0  0  0  0  0  0  0  0  0  0  0
   -2.5710   21.1680   55.1140 N   0  0  0  0  0  0  0  0  0  0  0  0
   -2.7520   24.0140   63.0460 O   0  5  0  0  0  0  0  0  0  0  0  0
   -1.4120   23.0230   64.9470 O   0  5  0  0  0  0  0  0  0  0  0  0
   -5.2900   19.7490   63.6010 O   0  5  0  0  0  0  0  0  0  0  0  0
   -1.3050   21.0140   62.2140 O   0  5  0  0  0  0  0  0  0  0  0  0
   -3.8570   23.5370   65.3340 O   0  0  0  0  0  0  0  0  0  0  0  0
   -4.0250   17.6530   64.6390 O   0  0  0  0  0  0  0  0  0  0  0  0
   -1.3090   20.1950   64.6230 O   0  0  0  0  0  0  0  0  0  0  0  0
   -3.5390   16.4600   59.7200 O   0  0  0  0  0  0  0  0  0  0  0  0
   -1.5150   14.8320   61.5050 O   0  0  0  0  0  0  0  0  0  0  0  0
   -0.1970   17.3530   60.7210 O   0  0  0  0  0  0  0  0  0  0  0  0
   -4.7800   17.7700   62.1500 O   0  0  0  0  0  0  0  0  0  0  0  0
   -3.2090   21.6700   63.7830 O   0  0  0  0  0  0  0  0  0  0  0  0
   -2.8790   19.1970   63.0000 O   0  0  0  0  0  0  0  0  0  0  0  0
   -2.7850   23.1650   64.3110 P   0  0  0  0  0  0  0  0  0  0  0  0
   -4.3040   18.6090   63.4860 P   0  0  1  0  0  0  0  0  0  0  0  0
   -2.1310   20.5460   63.4060 P   0  0  1  0  0  0  0  0  0  0  0  0
  1 13  1  0  0  0  0
  2 14  1  0  0  0  0
  3 18  1  0  0  0  0
  4 19  1  0  0  0  0
  5 20  1  0  0  0  0
  6 21  1  0  0  0  0
  7 22  1  0  0  0  0
  8 22  1  0  0  0  0
  9 27  1  0  0  0  0
 10 27  1  0  0  0  0
 11 36  1  0  0  0  0
 12 37  1  0  0  0  0
 13 23  1  0  0  0  0
 13 24  2  0  0  0  0
 14 25  2  0  0  0  0
 14 26  1  0  0  0  0
 15 16  1  0  0  0  0
 15 17  2  0  0  0  0
 15 25  1  0  0  0  0
 16 23  2  0  0  0  0
 16 26  1  0  0  0  0
 17 24  1  0  0  0  0
 17 27  1  0  0  0  0
 18 19  1  0  0  0  0
 18 20  1  0  0  0  0
 18 36  1  0  0  0  0
 19 21  1  0  0  0  0
 19 37  1  0  0  0  0
 20 22  1  0  0  0  0
 20 35  1  0  0  0  0
 21 26  1  0  0  0  0
 21 35  1  0  0  0  0
 22 38  1  0  0  0  0
 28 41  1  0  0  0  0
 29 41  1  0  0  0  0
 30 42  1  0  0  0  0
 31 43  1  0  0  0  0
 32 41  2  0  0  0  0
 33 42  2  0  0  0  0
 34 43  2  0  0  0  0
 38 42  1  0  0  0  0
 39 41  1  0  0  0  0
 39 43  1  0  0  0  0
 40 42  1  0  0  0  0
 40 43  1  0  0  0  0
M  CHG  4  28  -1  29  -1  31  -1  30  -1
M  END
> <scpdb_id>
2xje_2

$$$$
