@<TRIPOS>MOLECULE
2xje_ATP_2_ligand
   43    45     1     0     0
SMALL
NO_CHARGES


@<TRIPOS>ATOM
     1 PG          -2.7850    23.1650    64.3110 P.3          1 ATP1490   0.0000
     2 O1G         -3.8570    23.5370    65.3340 O.co2        1 ATP1490   0.0000
     3 O2G         -2.7520    24.0140    63.0460 O.co2        1 ATP1490  -1.0000
     4 O3G         -1.4120    23.0230    64.9470 O.co2        1 ATP1490  -1.0000
     5 PB          -2.1310    20.5460    63.4060 P.3          1 ATP1490   0.0000
     6 O1B         -1.3090    20.1950    64.6230 O.co2        1 ATP1490   0.0000
     7 O2B         -1.3050    21.0140    62.2140 O.co2        1 ATP1490  -1.0000
     8 O3B         -3.2090    21.6700    63.7830 O.3          1 ATP1490   0.0000
     9 PA          -4.3040    18.6090    63.4860 P.3          1 ATP1490   0.0000
    10 O1A         -4.0250    17.6530    64.6390 O.co2        1 ATP1490   0.0000
    11 O2A         -5.2900    19.7490    63.6010 O.co2        1 ATP1490  -1.0000
    12 O3A         -2.8790    19.1970    63.0000 O.3          1 ATP1490   0.0000
    13 O5'         -4.7800    17.7700    62.1500 O.3          1 ATP1490   0.0000
    14 C5'         -4.7540    16.3620    61.9340 C.3          1 ATP1490   0.0000
    15 C4'         -3.5880    15.8730    61.0380 C.3          1 ATP1490   0.0000
    16 O4'         -3.5390    16.4600    59.7200 O.3          1 ATP1490   0.0000
    17 C3'         -2.2090    16.0720    61.6520 C.3          1 ATP1490   0.0000
    18 O3'         -1.5150    14.8320    61.5050 O.3          1 ATP1490   0.0000
    19 C2'         -1.6150    17.1980    60.7910 C.3          1 ATP1490   0.0000
    20 O2'         -0.1970    17.3530    60.7210 O.3          1 ATP1490   0.0000
    21 C1'         -2.1870    16.8780    59.4300 C.3          1 ATP1490   0.0000
    22 N9          -2.2200    18.1040    58.5990 N.pl3        1 ATP1490   0.0000
    23 C8          -2.1220    19.3540    59.0800 C.2          1 ATP1490   0.0000
    24 N7          -2.2120    20.2400    58.0740 N.2          1 ATP1490   0.0000
    25 C5          -2.3830    19.5480    56.9180 C.ar         1 ATP1490   0.0000
    26 C6          -2.5440    19.8680    55.4920 C.ar         1 ATP1490   0.0000
    27 N6          -2.5710    21.1680    55.1140 N.pl3        1 ATP1490   0.0000
    28 N1          -2.6790    18.8540    54.6000 N.ar         1 ATP1490   0.0000
    29 C2          -2.6920    17.5680    54.9680 C.ar         1 ATP1490   0.0000
    30 N3          -2.5310    17.2050    56.2520 N.ar         1 ATP1490   0.0000
    31 C4          -2.3850    18.1300    57.2600 C.ar         1 ATP1490   0.0000
    32 H5'1        -5.6147    16.0963    61.4998 H            1 ATP1490   0.0000
    33 H5'2        -4.6758    15.9106    62.8229 H            1 ATP1490   0.0000
    34 H4'         -3.7109    14.8885    60.9130 H            1 ATP1490   0.0000
    35 H3'         -2.2730    16.3425    62.6126 H            1 ATP1490   0.0000
    36 H5          -0.5984    14.9146    61.8962 H            1 ATP1490   0.0000
    37 H2'         -2.0081    18.0648    61.0978 H            1 ATP1490   0.0000
    38 H7           0.1609    16.8078    59.9629 H            1 ATP1490   0.0000
    39 H1'         -1.6700    16.1491    58.9812 H            1 ATP1490   0.0000
    40 H9          -2.0001    19.5903    60.0440 H            1 ATP1490   0.0000
    41 H10         -2.6797    21.4059    54.1488 H            1 ATP1490   0.0000
    42 H11         -2.4822    21.8901    55.8000 H            1 ATP1490   0.0000
    43 H12         -2.8244    16.8615    54.2728 H            1 ATP1490   0.0000
@<TRIPOS>BOND
     1    1    2      ar
     2    1    3      ar
     3    1    4      ar
     4    1    8       1
     5    5    6      ar
     6    5    7      ar
     7    5    8       1
     8    5   12       1
     9    9   10      ar
    10    9   11      ar
    11    9   12       1
    12    9   13       1
    13   13   14       1
    14   14   15       1
    15   15   16       1
    16   15   17       1
    17   16   21       1
    18   17   18       1
    19   17   19       1
    20   19   20       1
    21   19   21       1
    22   21   22       1
    23   22   23       1
    24   22   31       1
    25   23   24       2
    26   24   25       1
    27   25   26      ar
    28   25   31      ar
    29   26   27       1
    30   26   28      ar
    31   28   29      ar
    32   29   30      ar
    33   30   31      ar
    34   29   43       1
    35   27   42       1
    36   27   41       1
    37   23   40       1
    38   14   32       1
    39   14   33       1
    40   15   34       1
    41   17   35       1
    42   18   36       1
    43   19   37       1
    44   20   38       1
    45   21   39       1
@<TRIPOS>SUBSTRUCTURE
     1 ATP1490     1 GROUP             4 A     ATP     0 **** ATP A1490
