#    Name: 14231
#    Modification time : Tue Aug  8 22:25:29 2017

@<TRIPOS>MOLECULE
14231
  103     0     9     0     0
SMALL
NO_CHARGES


@<TRIPOS>ATOM
      1 N          43.0190    0.5810   80.9700 N.am      1 SEL1        0.0000 
      2 N          41.6610    0.7220   82.9930 N.am      1 SEL1        0.0000 
      3 N          40.9620    5.6870   81.2250 N.am      1 SEL1        0.0000 
      4 N          39.3530    6.5710   83.3900 N.am      1 SEL1        0.0000 
      5 N          33.3520    7.9110   81.3450 N.am      1 SEL1        0.0000 
      6 N          35.7350    7.3460   80.8660 N.am      1 SEL1        0.0000 
      7 N          48.6550   -6.3530   81.9680 N.am      1 SEL1        0.0000 
      8 N          49.9300   -6.8200   80.2580 N.am      1 SEL1        0.0000 
      9 N          40.7470   -0.5410   78.6530 N.am      1 SEL1        0.0000 
     10 N          39.6690   -2.4670   79.8110 N.am      1 SEL1        0.0000 
     11 O          40.9620    5.6870   81.2250 O.2       2 ALL2        0.0000 
     12 O          39.3530    6.5710   83.3900 O.2       2 ALL2        0.0000 
     13 O          32.1570    6.6090   83.0190 O.2       2 ALL2        0.0000 
     14 O          50.9670   -6.8620   82.3260 O.2       2 ALL2        0.0000 
     15 O          44.2140   -5.5390   81.1520 O.2       2 ALL2        0.0000 
     16 CA         40.3640    4.5810   81.9670 C.3       3 GLL5        0.0000 
     17 CA         37.8600    5.3420   81.8330 C.3       3 GLL5        0.0000 
     18 CA         48.4340   -5.1890   87.6690 C.3       3 GLL5        0.0000 
     19 CA         47.6810   -3.7450   89.6490 C.3       3 GLL5        0.0000 
     20 CA         45.2240   -2.6220   87.7290 C.3       3 GLL5        0.0000 
     21 CA         47.1280   -5.1090   85.3310 C.3       3 GLL5        0.0000 
     22 CA         46.1780   -5.4530   83.1870 C.3       3 GLL5        0.0000 
     23 CA         45.9590   -4.2570   82.3270 C.3       3 GLL5        0.0000 
     24 CA         44.4480   -4.3160   81.6750 C.3       3 GLL5        0.0000 
     25 CA         44.1280   -3.1840   80.8340 C.3       3 GLL5        0.0000 
     26 CA         42.4950   -3.1460   80.6400 C.3       3 GLL5        0.0000 
     27 N          45.3220    2.2720   81.4800 N.am      4 SEP1        0.0000 
     28 N          43.6610    1.3700   77.9990 N.am      4 SEP1        0.0000 
     29 N          44.0700    1.5520   84.5040 N.am      4 SEP1        0.0000 
     30 N          39.8000    0.1000   84.8440 N.am      4 SEP1        0.0000 
     31 N          43.0920    7.3860   80.7410 N.am      4 SEP1        0.0000 
     32 N          41.5350    6.9530   85.1830 N.am      4 SEP1        0.0000 
     33 N          31.0140    9.9000   81.3380 N.am      4 SEP1        0.0000 
     34 N          37.1110   10.1770   81.2100 N.am      4 SEP1        0.0000 
     35 N          47.2010   -5.9350   79.1270 N.am      4 SEP1        0.0000 
     36 N          51.6730   -9.1100   79.7510 N.am      4 SEP1        0.0000 
     37 N          42.2970   -0.4110   76.1380 N.am      4 SEP1        0.0000 
     38 N          39.3840   -0.9990   76.4100 N.am      4 SEP1        0.0000 
     39 N          40.0480    1.9740   77.7440 N.am      4 SEP1        0.0000 
     40 N          37.2080   -1.7360   78.9530 N.am      4 SEP1        0.0000 
     41 N          38.1270   -4.7920   79.4750 N.am      4 SEP1        0.0000 
     42 O          39.5660    7.5150   79.9370 O.2       5 ALP2        0.0000 
     43 O          39.8630    8.5080   81.8720 O.2       5 ALP2        0.0000 
     44 O          29.6180    7.6140   82.2710 O.2       5 ALP2        0.0000 
     45 O          31.5930    4.3690   84.8560 O.2       5 ALP2        0.0000 
     46 O          53.2620   -6.1260   81.4130 O.2       5 ALP2        0.0000 
     47 O          41.6520   -6.4700   81.5330 O.2       5 ALP2        0.0000 
     48 CA         43.0480    7.7760   82.1040 C.3       6 GLP5        0.0000 
     49 CA         36.9410    9.0350   84.1850 C.3       6 GLP5        0.0000 
     50 CA         50.4620   -2.9640   84.6580 C.3       6 GLP5        0.0000 
     51 CA         46.0120   -7.1210   90.5660 C.3       6 GLP5        0.0000 
     52 CA         45.7710    0.0620   90.3560 C.3       6 GLP5        0.0000 
     53 CA         42.5400   -4.9460   87.7160 C.3       6 GLP5        0.0000 
     54 CA         42.1450    0.3090   87.5600 C.3       6 GLP5        0.0000 
     55 CA         46.5120    0.5480   89.3070 C.3       6 GLP5        0.0000 
     56 CA         46.7430   -9.7120   82.2880 C.3       6 GLP5        0.0000 
     57 CA         44.4550   -0.8360   84.7490 C.3       6 GLP5        0.0000 
     58 CA         50.1720   -3.0980   82.1610 C.3       6 GLP5        0.0000 
     59 CA         41.0990   -6.9970   80.3330 C.3       6 GLP5        0.0000 
     60 CA         45.1140   -0.5860   77.6460 C.3       6 GLP5        0.0000 
     61 CA         51.7650   -4.7300   87.6400 C.3       6 GLP5        0.0000 
     62 CA         43.0550   -4.5210   76.9090 C.3       6 GLP5        0.0000 
     63 N          44.1705    1.4265   81.2250 N.am      7 SEC1        0.0000 
     64 N          43.3400    0.9755   79.4845 N.am      7 SEC1        0.0000 
     65 N          42.8655    1.1370   83.7485 N.am      7 SEC1        0.0000 
     66 N          40.7305    0.4110   83.9185 N.am      7 SEC1        0.0000 
     67 N          42.0270    6.5365   80.9830 N.am      7 SEC1        0.0000 
     68 N          40.4440    6.7620   84.2865 N.am      7 SEC1        0.0000 
     69 N          32.1830    8.9055   81.3415 N.am      7 SEC1        0.0000 
     70 N          36.4230    8.7615   81.0380 N.am      7 SEC1        0.0000 
     71 N          47.9280   -6.1440   80.5475 N.am      7 SEC1        0.0000 
     72 N          48.5655   -6.3775   79.6925 N.am      7 SEC1        0.0000 
     73 N          50.8015   -7.9650   80.0045 N.am      7 SEC1        0.0000 
     74 N          41.5220   -0.4760   77.3955 N.am      7 SEC1        0.0000 
     75 N          40.0655   -0.7700   77.5315 N.am      7 SEC1        0.0000 
     76 N          40.3975    0.7165   78.1985 N.am      7 SEC1        0.0000 
     77 N          38.4385   -2.1015   79.3820 N.am      7 SEC1        0.0000 
     78 N          38.8980   -3.6295   79.6430 N.am      7 SEC1        0.0000 
     79 O          40.2640    6.6010   80.5810 O.2       8 ALC2        0.0000 
     80 O          40.4125    7.0975   81.5485 O.2       8 ALC2        0.0000 
     81 O          39.6080    7.5395   82.6310 O.2       8 ALC2        0.0000 
     82 O          30.8875    7.1115   82.6450 O.2       8 ALC2        0.0000 
     83 O          31.8750    5.4890   83.9375 O.2       8 ALC2        0.0000 
     84 O          52.1145   -6.4940   81.8695 O.2       8 ALC2        0.0000 
     85 O          42.9330   -6.0045   81.3425 O.2       8 ALC2        0.0000 
     86 CA         41.7060    6.1785   82.0355 C.3       9 GLC5        0.0000 
     87 CA         37.4005    7.1885   83.0090 C.3       9 GLC5        0.0000 
     88 CA         49.4480   -4.0765   86.1635 C.3       9 GLC5        0.0000 
     89 CA         46.8465   -5.4330   90.1075 C.3       9 GLC5        0.0000 
     90 CA         46.7260   -1.8415   90.0025 C.3       9 GLC5        0.0000 
     91 CA         43.8820   -3.7840   87.7225 C.3       9 GLC5        0.0000 
     92 CA         43.6845   -1.1565   87.6445 C.3       9 GLC5        0.0000 
     93 CA         45.8680   -1.0370   88.5180 C.3       9 GLC5        0.0000 
     94 CA         48.7950   -4.0365   84.9945 C.3       9 GLC5        0.0000 
     95 CA         46.4605   -7.5825   82.7375 C.3       9 GLC5        0.0000 
     96 CA         45.2070   -2.5465   83.5380 C.3       9 GLC5        0.0000 
     97 CA         48.0655   -3.6775   82.2440 C.3       9 GLC5        0.0000 
     98 CA         42.7735   -5.6565   81.0040 C.3       9 GLC5        0.0000 
     99 CA         44.6210   -1.8850   79.2400 C.3       9 GLC5        0.0000 
    100 CA         41.7970   -5.0715   80.4865 C.3       9 GLC5        0.0000 
    101 CA         49.8588   -4.7160   87.7968 C.3       9 GLC5        0.0000 
    102 CA         43.1833   -3.8430   78.8230 C.3       9 GLC5        0.0000 
    103 CA         45.2076   -2.1756   85.9166 C.3       9 GLC5        0.0000 
@<TRIPOS>BOND
@<TRIPOS>SUBSTRUCTURE
     1 SEL1        1 GROUP        1 Z    SEL  0     ROOT SEL Z 0
     2 ALL2       11 GROUP        1 Z    ALL  0     **** ALL Z 1
     3 GLL5       16 GROUP        1 Z    GLL  0     **** GLL Z 4
     4 SEP1       27 GROUP        1 Z    SEP  0     **** SEP Z 7
     5 ALP2       42 GROUP        1 Z    ALP  0     **** ALP Z 8
     6 GLP5       48 GROUP        1 Z    GLP  0     **** GLP Z 11
     7 SEC1       63 GROUP        1 Z    SEC  0     **** SEC Z 14
     8 ALC2       79 GROUP        1 Z    ALC  0     **** ALC Z 15
     9 GLC5       86 GROUP        1 Z    GLC  0     **** GLC Z 18
@<TRIPOS>SET

