2fje_FAD_2_ligand
  -OEChem-08111718373D

 84 89  0     1  0  0  0  0  0999 V2000
   49.1542   -5.5791   88.2427 H   0  0  0  0  0  0  0  0  0  0  0  0
   45.3515   -3.8488   85.4182 H   0  0  0  0  0  0  0  0  0  0  0  0
   34.6058    8.8486   79.9806 H   0  0  0  0  0  0  0  0  0  0  0  0
   36.3899    3.9942   83.7910 H   0  0  0  0  0  0  0  0  0  0  0  0
   41.0177    4.0029   82.4554 H   0  0  0  0  0  0  0  0  0  0  0  0
   39.0026    4.4594   83.5546 H   0  0  0  0  0  0  0  0  0  0  0  0
   39.6510    3.9454   80.0381 H   0  0  0  0  0  0  0  0  0  0  0  0
   38.0548    6.1057   81.2175 H   0  0  0  0  0  0  0  0  0  0  0  0
   46.9607   -3.0964   89.8950 H   0  0  0  0  0  0  0  0  0  0  0  0
   47.6500   -4.5286   90.2695 H   0  0  0  0  0  0  0  0  0  0  0  0
   48.5721   -3.2971   89.7220 H   0  0  0  0  0  0  0  0  0  0  0  0
   44.5907   -2.4612   86.9720 H   0  0  0  0  0  0  0  0  0  0  0  0
   44.7163   -2.9562   88.5231 H   0  0  0  0  0  0  0  0  0  0  0  0
   45.6860   -1.7669   87.9644 H   0  0  0  0  0  0  0  0  0  0  0  0
   39.3799    2.1207   82.2498 H   0  0  0  0  0  0  0  0  0  0  0  0
   38.9321    1.7476   80.7243 H   0  0  0  0  0  0  0  0  0  0  0  0
   45.4088   -5.5094   83.8235 H   0  0  0  0  0  0  0  0  0  0  0  0
   46.1766   -6.2555   82.5904 H   0  0  0  0  0  0  0  0  0  0  0  0
   42.0510   -2.9685   81.5183 H   0  0  0  0  0  0  0  0  0  0  0  0
   42.1742   -4.0200   80.2749 H   0  0  0  0  0  0  0  0  0  0  0  0
   46.5827   -4.3725   81.5539 H   0  0  0  0  0  0  0  0  0  0  0  0
   44.5486   -3.3280   79.9382 H   0  0  0  0  0  0  0  0  0  0  0  0
   43.8260   -4.2439   82.4547 H   0  0  0  0  0  0  0  0  0  0  0  0
   51.8520   -7.0764   81.9127 H   0  0  0  0  0  0  0  0  0  0  0  0
   31.3330    7.1488   82.8467 H   0  0  0  0  0  0  0  0  0  0  0  0
   32.1439    5.8819   83.7054 H   0  0  0  0  0  0  0  0  0  0  0  0
   40.2412    6.3014   80.9041 H   0  0  0  0  0  0  0  0  0  0  0  0
   39.4404    7.2168   82.6315 H   0  0  0  0  0  0  0  0  0  0  0  0
   45.7896   -2.3758   82.6006 H   0  0  0  0  0  0  0  0  0  0  0  0
   43.6885   -1.2995   81.4026 H   0  0  0  0  0  0  0  0  0  0  0  0
   43.2370   -5.7445   81.2088 H   0  0  0  0  0  0  0  0  0  0  0  0
   48.4340   -5.1890   87.6690 C   0  0  0  0  0  0  0  0  0  0  0  0
   46.1310   -4.1490   85.9680 C   0  0  0  0  0  0  0  0  0  0  0  0
   34.5680    8.1140   80.6580 C   0  0  0  0  0  0  0  0  0  0  0  0
   35.9090    4.7130   83.2890 C   0  0  0  0  0  0  0  0  0  0  0  0
   47.4710   -4.2150   88.2380 C   0  0  0  0  0  0  0  0  0  0  0  0
   46.2430   -3.6450   87.3200 C   0  0  0  0  0  0  0  0  0  0  0  0
   48.3240   -5.5700   86.2800 C   0  0  0  0  0  0  0  0  0  0  0  0
   34.4220    6.0140   82.6600 C   0  0  0  0  0  0  0  0  0  0  0  0
   47.1280   -5.1090   85.3310 C   0  0  0  0  0  0  0  0  0  0  0  0
   49.5700   -6.4870   84.3850 C   0  0  0  0  0  0  0  0  0  0  0  0
   35.6310    6.3280   81.8600 C   0  0  0  0  0  0  0  0  0  0  0  0
   33.2430    6.8520   82.3520 C   0  0  0  0  0  0  0  0  0  0  0  0
   50.9080   -6.7420   83.8010 C   0  0  0  0  0  0  0  0  0  0  0  0
   48.4390   -6.1500   83.3690 C   0  0  0  0  0  0  0  0  0  0  0  0
   49.8340   -6.6910   81.4390 C   0  0  0  0  0  0  0  0  0  0  0  0
   40.3640    4.5810   81.9670 C   0  0  1  0  0  0  0  0  0  0  0  0
   39.2140    5.1030   82.8190 C   0  0  2  0  0  0  0  0  0  0  0  0
   39.3530    3.7790   80.9780 C   0  0  1  0  0  0  0  0  0  0  0  0
   37.8600    5.3420   81.8330 C   0  0  2  0  0  0  0  0  0  0  0  0
   47.6810   -3.7450   89.6490 C   0  0  0  0  0  0  0  0  0  0  0  0
   45.2240   -2.6220   87.7290 C   0  0  0  0  0  0  0  0  0  0  0  0
   39.5690    2.2810   81.2810 C   0  0  1  0  0  0  0  0  0  0  0  0
   46.1780   -5.4530   83.1870 C   0  0  1  0  0  0  0  0  0  0  0  0
   42.4950   -3.1460   80.6400 C   0  0  2  0  0  0  0  0  0  0  0  0
   45.9590   -4.2570   82.3270 C   0  0  1  0  0  0  0  0  0  0  0  0
   44.1280   -3.1840   80.8340 C   0  0  2  0  0  0  0  0  0  0  0  0
   44.4480   -4.3160   81.6750 C   0  0  1  0  0  0  0  0  0  0  0  0
   35.7350    7.3460   80.8660 N   0  0  0  0  0  0  0  0  0  0  0  0
   33.3520    7.9110   81.3450 N   0  0  0  0  0  0  0  0  0  0  0  0
   34.6760    5.0060   83.5170 N   0  0  0  0  0  0  0  0  0  0  0  0
   49.4540   -6.2630   85.7540 N   0  0  0  0  0  0  0  0  0  0  0  0
   48.6550   -6.3530   81.9680 N   0  0  0  0  0  0  0  0  0  0  0  0
   50.9670   -6.8620   82.3260 N   0  0  0  0  0  0  0  0  0  0  0  0
   36.5300    5.4730   82.2870 N   0  0  0  0  0  0  0  0  0  0  0  0
   47.1940   -5.4900   83.8420 N   0  0  0  0  0  0  0  0  0  0  0  0
   32.1570    6.6090   83.0190 N   0  0  0  0  0  0  0  0  0  0  0  0
   41.6610    0.7220   82.9930 O   0  5  0  0  0  0  0  0  0  0  0  0
   39.6690   -2.4670   79.8110 O   0  5  0  0  0  0  0  0  0  0  0  0
   51.9210   -6.8260   84.4710 O   0  0  0  0  0  0  0  0  0  0  0  0
   49.9300   -6.8200   80.2580 O   0  0  0  0  0  0  0  0  0  0  0  0
   43.0190    0.5810   80.9700 O   0  0  0  0  0  0  0  0  0  0  0  0
   40.7470   -0.5410   78.6530 O   0  0  0  0  0  0  0  0  0  0  0  0
   37.9590    4.0850   81.0530 O   0  0  0  0  0  0  0  0  0  0  0  0
   40.9620    5.6870   81.2250 O   0  0  0  0  0  0  0  0  0  0  0  0
   39.3530    6.5710   83.3900 O   0  0  0  0  0  0  0  0  0  0  0  0
   46.3490   -3.1390   82.9240 O   0  0  0  0  0  0  0  0  0  0  0  0
   44.5060   -1.8680   81.3100 O   0  0  0  0  0  0  0  0  0  0  0  0
   44.2140   -5.5390   81.1520 O   0  0  0  0  0  0  0  0  0  0  0  0
   40.8500    1.8600   81.0080 O   0  0  0  0  0  0  0  0  0  0  0  0
   42.1880   -2.0680   79.6980 O   0  0  0  0  0  0  0  0  0  0  0  0
   40.7730   -0.7170   81.1780 O   0  0  0  0  0  0  0  0  0  0  0  0
   41.8170    0.6020   81.5740 P   0  0  2  0  0  0  0  0  0  0  0  0
   40.7920   -1.3550   79.8470 P   0  0  2  0  0  0  0  0  0  0  0  0
  1 32  1  0  0  0  0
  2 33  1  0  0  0  0
  3 34  1  0  0  0  0
  4 35  1  0  0  0  0
  5 47  1  0  0  0  0
  6 48  1  0  0  0  0
  7 49  1  0  0  0  0
  8 50  1  0  0  0  0
  9 51  1  0  0  0  0
 10 51  1  0  0  0  0
 11 51  1  0  0  0  0
 12 52  1  0  0  0  0
 13 52  1  0  0  0  0
 14 52  1  0  0  0  0
 15 53  1  0  0  0  0
 16 53  1  0  0  0  0
 17 54  1  0  0  0  0
 18 54  1  0  0  0  0
 19 55  1  0  0  0  0
 20 55  1  0  0  0  0
 21 56  1  0  0  0  0
 22 57  1  0  0  0  0
 23 58  1  0  0  0  0
 24 64  1  0  0  0  0
 25 67  1  0  0  0  0
 26 67  1  0  0  0  0
 27 75  1  0  0  0  0
 28 76  1  0  0  0  0
 29 77  1  0  0  0  0
 30 78  1  0  0  0  0
 31 79  1  0  0  0  0
 32 36  1  0  0  0  0
 32 38  2  0  0  0  0
 33 37  1  0  0  0  0
 33 40  2  0  0  0  0
 34 59  1  0  0  0  0
 34 60  2  0  0  0  0
 35 61  2  0  0  0  0
 35 65  1  0  0  0  0
 36 37  2  0  0  0  0
 36 51  1  0  0  0  0
 37 52  1  0  0  0  0
 38 40  1  0  0  0  0
 38 62  1  0  0  0  0
 39 42  1  0  0  0  0
 39 43  2  0  0  0  0
 39 61  1  0  0  0  0
 40 66  1  0  0  0  0
 41 44  1  0  0  0  0
 41 45  1  0  0  0  0
 41 62  2  0  0  0  0
 42 59  2  0  0  0  0
 42 65  1  0  0  0  0
 43 60  1  0  0  0  0
 43 67  1  0  0  0  0
 44 64  1  0  0  0  0
 44 70  2  0  0  0  0
 45 63  2  0  0  0  0
 45 66  1  0  0  0  0
 46 63  1  0  0  0  0
 46 64  1  0  0  0  0
 46 71  2  0  0  0  0
 47 48  1  0  0  0  0
 47 49  1  0  0  0  0
 47 75  1  0  0  0  0
 48 50  1  0  0  0  0
 48 76  1  0  0  0  0
 49 53  1  0  0  0  0
 49 74  1  0  0  0  0
 50 65  1  0  0  0  0
 50 74  1  0  0  0  0
 53 80  1  0  0  0  0
 54 56  1  0  0  0  0
 54 66  1  0  0  0  0
 55 57  1  0  0  0  0
 55 81  1  0  0  0  0
 56 58  1  0  0  0  0
 56 77  1  0  0  0  0
 57 58  1  0  0  0  0
 57 78  1  0  0  0  0
 58 79  1  0  0  0  0
 68 83  1  0  0  0  0
 69 84  1  0  0  0  0
 72 83  2  0  0  0  0
 73 84  2  0  0  0  0
 80 83  1  0  0  0  0
 81 84  1  0  0  0  0
 82 83  1  0  0  0  0
 82 84  1  0  0  0  0
M  CHG  2  68  -1  69  -1
M  END
> <scpdb_id>
2fje_2

$$$$
