@<TRIPOS>MOLECULE
2fje_FAD_2_ligand
   84    89     1     0     0
SMALL
NO_CHARGES


@<TRIPOS>ATOM
     1 PA          41.8170     0.6020    81.5740 P.3          1 FAD3000   0.0000
     2 O1A         43.0190     0.5810    80.9700 O.co2        1 FAD3000   0.0000
     3 O2A         41.6610     0.7220    82.9930 O.co2        1 FAD3000  -1.0000
     4 O5B         40.8500     1.8600    81.0080 O.3          1 FAD3000   0.0000
     5 C5B         39.5690     2.2810    81.2810 C.3          1 FAD3000   0.0000
     6 C4B         39.3530     3.7790    80.9780 C.3          1 FAD3000   0.0000
     7 O4B         37.9590     4.0850    81.0530 O.3          1 FAD3000   0.0000
     8 C3B         40.3640     4.5810    81.9670 C.3          1 FAD3000   0.0000
     9 O3B         40.9620     5.6870    81.2250 O.3          1 FAD3000   0.0000
    10 C2B         39.2140     5.1030    82.8190 C.3          1 FAD3000   0.0000
    11 O2B         39.3530     6.5710    83.3900 O.3          1 FAD3000   0.0000
    12 C1B         37.8600     5.3420    81.8330 C.3          1 FAD3000   0.0000
    13 N9A         36.5300     5.4730    82.2870 N.pl3        1 FAD3000   0.0000
    14 C8A         35.9090     4.7130    83.2890 C.2          1 FAD3000   0.0000
    15 N7A         34.6760     5.0060    83.5170 N.2          1 FAD3000   0.0000
    16 C5A         34.4220     6.0140    82.6600 C.ar         1 FAD3000   0.0000
    17 C6A         33.2430     6.8520    82.3520 C.ar         1 FAD3000   0.0000
    18 N6A         32.1570     6.6090    83.0190 N.pl3        1 FAD3000   0.0000
    19 N1A         33.3520     7.9110    81.3450 N.ar         1 FAD3000   0.0000
    20 C2A         34.5680     8.1140    80.6580 C.ar         1 FAD3000   0.0000
    21 N3A         35.7350     7.3460    80.8660 N.ar         1 FAD3000   0.0000
    22 C4A         35.6310     6.3280    81.8600 C.ar         1 FAD3000   0.0000
    23 N1          48.6550    -6.3530    81.9680 N.2          1 FAD3000   0.0000
    24 C2          49.8340    -6.6910    81.4390 C.2          1 FAD3000   0.0000
    25 O2          49.9300    -6.8200    80.2580 O.2          1 FAD3000   0.0000
    26 N3          50.9670    -6.8620    82.3260 N.pl3        1 FAD3000   0.0000
    27 C4          50.9080    -6.7420    83.8010 C.2          1 FAD3000   0.0000
    28 O4          51.9210    -6.8260    84.4710 O.2          1 FAD3000   0.0000
    29 C4X         49.5700    -6.4870    84.3850 C.2          1 FAD3000   0.0000
    30 N5          49.4540    -6.2630    85.7540 N.2          1 FAD3000   0.0000
    31 C5X         48.3240    -5.5700    86.2800 C.ar         1 FAD3000   0.0000
    32 C6          48.4340    -5.1890    87.6690 C.ar         1 FAD3000   0.0000
    33 C7          47.4710    -4.2150    88.2380 C.ar         1 FAD3000   0.0000
    34 C7M         47.6810    -3.7450    89.6490 C.3          1 FAD3000   0.0000
    35 C8          46.2430    -3.6450    87.3200 C.ar         1 FAD3000   0.0000
    36 C8M         45.2240    -2.6220    87.7290 C.3          1 FAD3000   0.0000
    37 C9          46.1310    -4.1490    85.9680 C.ar         1 FAD3000   0.0000
    38 C9A         47.1280    -5.1090    85.3310 C.ar         1 FAD3000   0.0000
    39 N10         47.1940    -5.4900    83.8420 N.pl3        1 FAD3000   0.0000
    40 C10         48.4390    -6.1500    83.3690 C.2          1 FAD3000   0.0000
    41 C1'         46.1780    -5.4530    83.1870 C.3          1 FAD3000   0.0000
    42 C2'         45.9590    -4.2570    82.3270 C.3          1 FAD3000   0.0000
    43 O2'         46.3490    -3.1390    82.9240 O.3          1 FAD3000   0.0000
    44 C3'         44.4480    -4.3160    81.6750 C.3          1 FAD3000   0.0000
    45 O3'         44.2140    -5.5390    81.1520 O.3          1 FAD3000   0.0000
    46 C4'         44.1280    -3.1840    80.8340 C.3          1 FAD3000   0.0000
    47 O4'         44.5060    -1.8680    81.3100 O.3          1 FAD3000   0.0000
    48 C5'         42.4950    -3.1460    80.6400 C.3          1 FAD3000   0.0000
    49 O5'         42.1880    -2.0680    79.6980 O.3          1 FAD3000   0.0000
    50 P           40.7920    -1.3550    79.8470 P.3          1 FAD3000   0.0000
    51 O1P         40.7470    -0.5410    78.6530 O.co2        1 FAD3000   0.0000
    52 O2P         39.6690    -2.4670    79.8110 O.co2        1 FAD3000  -1.0000
    53 O3P         40.7730    -0.7170    81.1780 O.3          1 FAD3000   0.0000
    54 H5B1        39.3799     2.1207    82.2498 H            1 FAD3000   0.0000
    55 H5B2        38.9321     1.7476    80.7243 H            1 FAD3000   0.0000
    56 H4B         39.6510     3.9454    80.0381 H            1 FAD3000   0.0000
    57 H3B         41.0177     4.0029    82.4554 H            1 FAD3000   0.0000
    58 H5          40.2412     6.3014    80.9041 H            1 FAD3000   0.0000
    59 H2B         39.0026     4.4594    83.5546 H            1 FAD3000   0.0000
    60 H7          39.4404     7.2168    82.6315 H            1 FAD3000   0.0000
    61 H1B         38.0548     6.1057    81.2175 H            1 FAD3000   0.0000
    62 H8A         36.3899     3.9942    83.7910 H            1 FAD3000   0.0000
    63 H6A1        31.3330     7.1488    82.8467 H            1 FAD3000   0.0000
    64 H6A2        32.1439     5.8819    83.7054 H            1 FAD3000   0.0000
    65 H2A         34.6058     8.8486    79.9806 H            1 FAD3000   0.0000
    66 H13         51.8520    -7.0764    81.9127 H            1 FAD3000   0.0000
    67 H14         49.1542    -5.5791    88.2427 H            1 FAD3000   0.0000
    68 H7M1        46.9607    -3.0964    89.8950 H            1 FAD3000   0.0000
    69 H7M2        47.6500    -4.5286    90.2695 H            1 FAD3000   0.0000
    70 H7M3        48.5721    -3.2971    89.7220 H            1 FAD3000   0.0000
    71 H8M1        44.5907    -2.4612    86.9720 H            1 FAD3000   0.0000
    72 H8M2        44.7163    -2.9562    88.5231 H            1 FAD3000   0.0000
    73 H8M3        45.6860    -1.7669    87.9644 H            1 FAD3000   0.0000
    74 H21         45.3515    -3.8488    85.4182 H            1 FAD3000   0.0000
    75 H1'1        45.4088    -5.5094    83.8235 H            1 FAD3000   0.0000
    76 H1'2        46.1766    -6.2555    82.5904 H            1 FAD3000   0.0000
    77 H2'         46.5827    -4.3725    81.5539 H            1 FAD3000   0.0000
    78 H25         45.7896    -2.3758    82.6006 H            1 FAD3000   0.0000
    79 H3'         43.8260    -4.2439    82.4547 H            1 FAD3000   0.0000
    80 H27         43.2370    -5.7445    81.2088 H            1 FAD3000   0.0000
    81 H4'         44.5486    -3.3280    79.9382 H            1 FAD3000   0.0000
    82 H29         43.6885    -1.2995    81.4026 H            1 FAD3000   0.0000
    83 H5'1        42.0510    -2.9685    81.5183 H            1 FAD3000   0.0000
    84 H5'2        42.1742    -4.0200    80.2749 H            1 FAD3000   0.0000
@<TRIPOS>BOND
     1    1    2      ar
     2    1    3      ar
     3    1    4       1
     4    1   53       1
     5    4    5       1
     6    5    6       1
     7    6    7       1
     8    6    8       1
     9    7   12       1
    10    8    9       1
    11    8   10       1
    12   10   11       1
    13   10   12       1
    14   12   13       1
    15   13   14       1
    16   13   22       1
    17   14   15       2
    18   15   16       1
    19   16   17      ar
    20   16   22      ar
    21   17   18       1
    22   17   19      ar
    23   19   20      ar
    24   20   21      ar
    25   21   22      ar
    26   23   24       1
    27   23   40       2
    28   24   25       2
    29   24   26       1
    30   26   27       1
    31   27   28       2
    32   27   29       1
    33   29   30       2
    34   29   40       1
    35   30   31       1
    36   31   32      ar
    37   31   38      ar
    38   32   33      ar
    39   33   34       1
    40   33   35      ar
    41   35   36       1
    42   35   37      ar
    43   37   38      ar
    44   38   39       1
    45   39   40       1
    46   39   41       1
    47   41   42       1
    48   42   43       1
    49   42   44       1
    50   44   45       1
    51   44   46       1
    52   46   47       1
    53   46   48       1
    54   48   49       1
    55   49   50       1
    56   50   51      ar
    57   50   52      ar
    58   50   53       1
    59   48   84       1
    60    5   54       1
    61    5   55       1
    62    6   56       1
    63    8   57       1
    64    9   58       1
    65   10   59       1
    66   11   60       1
    67   12   61       1
    68   14   62       1
    69   18   63       1
    70   18   64       1
    71   20   65       1
    72   26   66       1
    73   32   67       1
    74   34   68       1
    75   34   69       1
    76   34   70       1
    77   36   71       1
    78   36   72       1
    79   36   73       1
    80   37   74       1
    81   41   75       1
    82   41   76       1
    83   42   77       1
    84   43   78       1
    85   44   79       1
    86   45   80       1
    87   46   81       1
    88   47   82       1
    89   48   83       1
@<TRIPOS>SUBSTRUCTURE
     1 FAD3000     1 GROUP             4 C     FAD     0 **** FAD C3000
