#    Name: 8981
#    Modification time : Wed Aug  9 01:29:33 2017

@<TRIPOS>MOLECULE
8981
   52     0    12     0     0
SMALL
NO_CHARGES


@<TRIPOS>ATOM
      1 N          20.2700   66.6360   23.1610 N.am      1 SEL1        0.0000 
      2 N          19.7390   68.8220   23.4090 N.am      1 SEL1        0.0000 
      3 O          22.8980   58.7370   24.8460 O.2       2 ALL2        0.0000 
      4 O          24.8040   58.4450   23.7240 O.2       2 ALL2        0.0000 
      5 O          20.8390   57.4620   21.4880 O.2       2 ALL2        0.0000 
      6 NZ         20.2700   66.6360   23.1610 N.4       3 LYL3        0.0000 
      7 NZ         19.7390   68.8220   23.4090 N.4       3 LYL3        0.0000 
      8 CA         17.3870   59.0240   24.8550 C.3       4 GLL5        0.0000 
      9 CA         16.2740   59.4950   27.0980 C.3       4 GLL5        0.0000 
     10 CA         18.1740   62.2090   24.8170 C.3       4 GLL5        0.0000 
     11 CA         18.0700   63.5780   24.6820 C.3       4 GLL5        0.0000 
     12 CA         21.0310   67.8050   25.4590 C.3       4 GLL5        0.0000 
     13 CA         21.3380   67.4360   26.9560 C.3       4 GLL5        0.0000 
     14 N          20.4470   67.0880   20.3860 N.am      5 SEP1        0.0000 
     15 N          19.3860   69.0570   20.8490 N.am      5 SEP1        0.0000 
     16 O          24.3000   59.1770   27.0630 O.2       6 ALP2        0.0000 
     17 O          27.3160   57.1790   22.1130 O.2       6 ALP2        0.0000 
     18 O          26.3080   59.0550   26.1120 O.2       6 ALP2        0.0000 
     19 O          22.3130   56.0960   19.7170 O.2       6 ALP2        0.0000 
     20 O          18.4850   56.5540   20.3000 O.2       6 ALP2        0.0000 
     21 NZ         19.6620   68.0820   20.0030 N.4       7 LYP3        0.0000 
     22 CA         14.7230   58.0920   22.1100 C.3       8 GLP5        0.0000 
     23 CA         14.1560   61.5360   23.6930 C.3       8 GLP5        0.0000 
     24 CA         12.5590   58.0800   27.4460 C.3       8 GLP5        0.0000 
     25 CA         14.7400   61.7740   22.2910 C.3       8 GLP5        0.0000 
     26 CA         16.8450   65.7640   22.2970 C.3       8 GLP5        0.0000 
     27 CA         23.0010   68.9270   22.7290 C.3       8 GLP5        0.0000 
     28 CA         23.1370   64.2780   28.1340 C.3       8 GLP5        0.0000 
     29 CA         21.1670   63.1860   27.4100 C.3       8 GLP5        0.0000 
     30 CA         20.2610   63.6100   21.9680 C.3       8 GLP5        0.0000 
     31 N          20.3585   66.8620   21.7735 N.am      9 SEC1        0.0000 
     32 N          19.8280   67.8465   22.0050 N.am      9 SEC1        0.0000 
     33 N          19.5625   68.9395   22.1290 N.am      9 SEC1        0.0000 
     34 O          23.5990   58.9570   25.9545 O.2      10 ALC2        0.0000 
     35 O          26.0600   57.8120   22.9185 O.2      10 ALC2        0.0000 
     36 O          25.5560   58.7500   24.9180 O.2      10 ALC2        0.0000 
     37 O          24.5520   58.8110   25.3935 O.2      10 ALC2        0.0000 
     38 O          21.5760   56.7790   20.6025 O.2      10 ALC2        0.0000 
     39 O          19.6620   57.0080   20.8940 O.2      10 ALC2        0.0000 
     40 NZ         19.9660   67.3590   21.5820 N.4      11 LYC3        0.0000 
     41 NZ         19.7005   68.4520   21.7060 N.4      11 LYC3        0.0000 
     42 CA         16.0550   58.5580   23.4825 C.3      12 GLC5        0.0000 
     43 CA         15.7715   60.2800   24.2740 C.3      12 GLC5        0.0000 
     44 CA         14.4165   58.7875   27.2720 C.3      12 GLC5        0.0000 
     45 CA         15.2150   60.5155   25.3955 C.3      12 GLC5        0.0000 
     46 CA         16.1650   61.8725   24.2550 C.3      12 GLC5        0.0000 
     47 CA         16.4050   62.6760   23.4865 C.3      12 GLC5        0.0000 
     48 CA         17.4575   64.6710   23.4895 C.3      12 GLC5        0.0000 
     49 CA         22.0160   68.3660   24.0940 C.3      12 GLC5        0.0000 
     50 CA         22.2375   65.8570   27.5450 C.3      12 GLC5        0.0000 
     51 CA         19.6445   63.0398   26.0798 C.3      12 GLC5        0.0000 
     52 CA         19.1915   63.2518   23.3588 C.3      12 GLC5        0.0000 
@<TRIPOS>BOND
@<TRIPOS>SUBSTRUCTURE
     1 SEL1        1 GROUP        1 Z    SEL  0     ROOT SEL Z 0
     2 ALL2        3 GROUP        1 Z    ALL  0     **** ALL Z 1
     3 LYL3        6 GROUP        1 Z    LYL  0     **** LYL Z 2
     4 GLL5        8 GROUP        1 Z    GLL  0     **** GLL Z 4
     5 SEP1       14 GROUP        1 Z    SEP  0     **** SEP Z 7
     6 ALP2       16 GROUP        1 Z    ALP  0     **** ALP Z 8
     7 LYP3       21 GROUP        1 Z    LYP  0     **** LYP Z 9
     8 GLP5       22 GROUP        1 Z    GLP  0     **** GLP Z 11
     9 SEC1       31 GROUP        1 Z    SEC  0     **** SEC Z 14
    10 ALC2       34 GROUP        1 Z    ALC  0     **** ALC Z 15
    11 LYC3       40 GROUP        1 Z    LYC  0     **** LYC Z 16
    12 GLC5       42 GROUP        1 Z    GLC  0     **** GLC Z 18
@<TRIPOS>SET

