1tdr_MTX_1_ligand
  -OEChem-08111718373D

 56 58  0     1  0  0  0  0  0999 V2000
   19.2227   59.4202   26.7928 H   0  0  0  0  0  0  0  0  0  0  0  0
   16.9387   64.2865   27.7009 H   0  0  0  0  0  0  0  0  0  0  0  0
   16.7730   61.8813   27.8012 H   0  0  0  0  0  0  0  0  0  0  0  0
   18.8811   63.9123   24.2020 H   0  0  0  0  0  0  0  0  0  0  0  0
   17.2544   63.7826   24.1408 H   0  0  0  0  0  0  0  0  0  0  0  0
   17.9343   61.7935   23.9395 H   0  0  0  0  0  0  0  0  0  0  0  0
   19.1245   61.9924   25.0398 H   0  0  0  0  0  0  0  0  0  0  0  0
   15.9758   60.2180   27.7212 H   0  0  0  0  0  0  0  0  0  0  0  0
   15.4859   58.9421   26.8275 H   0  0  0  0  0  0  0  0  0  0  0  0
   16.9462   58.9148   27.5579 H   0  0  0  0  0  0  0  0  0  0  0  0
   17.1818   58.1233   25.2379 H   0  0  0  0  0  0  0  0  0  0  0  0
   16.9087   59.1326   23.9835 H   0  0  0  0  0  0  0  0  0  0  0  0
   22.3205   67.2525   26.9880 H   0  0  0  0  0  0  0  0  0  0  0  0
   20.8349   66.5893   27.1292 H   0  0  0  0  0  0  0  0  0  0  0  0
   21.2617   68.7619   25.2824 H   0  0  0  0  0  0  0  0  0  0  0  0
   21.5533   67.2167   24.8417 H   0  0  0  0  0  0  0  0  0  0  0  0
   18.9294   68.2546   25.6685 H   0  0  0  0  0  0  0  0  0  0  0  0
   19.8715   57.2137   21.5363 H   0  0  0  0  0  0  0  0  0  0  0  0
   21.3028   57.4961   20.6027 H   0  0  0  0  0  0  0  0  0  0  0  0
   25.3618   58.2001   22.9310 H   0  0  0  0  0  0  0  0  0  0  0  0
   25.2427   58.7558   24.5672 H   0  0  0  0  0  0  0  0  0  0  0  0
   19.6427   65.3913   24.8218 H   0  0  0  0  0  0  0  0  0  0  0  0
   19.6570   59.3360   25.8960 C   0  0  0  0  0  0  0  0  0  0  0  0
   20.7950   58.4340   23.6340 C   0  0  0  0  0  0  0  0  0  0  0  0
   18.8510   59.1430   24.6320 C   0  0  0  0  0  0  0  0  0  0  0  0
   21.5260   58.6310   24.6630 C   0  0  0  0  0  0  0  0  0  0  0  0
   21.4480   57.7210   22.5000 C   0  0  0  0  0  0  0  0  0  0  0  0
   23.4730   58.3570   23.6570 C   0  0  0  0  0  0  0  0  0  0  0  0
   17.2750   63.7000   26.9640 C   0  0  0  0  0  0  0  0  0  0  0  0
   17.0860   62.3390   26.9690 C   0  0  0  0  0  0  0  0  0  0  0  0
   17.9750   64.2180   25.8510 C   0  0  0  0  0  0  0  0  0  0  0  0
   17.3240   61.6140   25.8440 C   0  0  0  0  0  0  0  0  0  0  0  0
   17.8710   65.7650   25.8080 C   0  0  0  0  0  0  0  0  0  0  0  0
   21.0250   68.4190   28.2800 C   0  0  0  0  0  0  0  0  0  0  0  0
   19.6640   67.5360   23.7260 C   0  0  0  0  0  0  0  0  0  0  0  0
   18.0700   63.5780   24.6820 C   0  0  2  0  0  0  0  0  0  0  0  0
   18.1740   62.2090   24.8170 C   0  0  2  0  0  0  0  0  0  0  0  0
   16.2740   59.4950   27.0980 C   0  0  0  0  0  0  0  0  0  0  0  0
   17.3870   59.0240   24.8550 C   0  0  2  0  0  0  0  0  0  0  0  0
   21.3380   67.4360   26.9560 C   0  0  1  0  0  0  0  0  0  0  0  0
   21.0310   67.8050   25.4590 C   0  0  1  0  0  0  0  0  0  0  0  0
   19.5510   67.5790   25.2720 C   0  0  2  0  0  0  0  0  0  0  0  0
   20.9940   59.3880   25.7440 N   0  0  0  0  0  0  0  0  0  0  0  0
   19.4990   58.8970   23.5380 N   0  0  0  0  0  0  0  0  0  0  0  0
   22.7380   58.0690   22.6070 N   0  0  0  0  0  0  0  0  0  0  0  0
   22.8980   58.7370   24.8460 N   0  0  0  0  0  0  0  0  0  0  0  0
   20.8390   57.4620   21.4880 N   0  0  0  0  0  0  0  0  0  0  0  0
   24.8040   58.4450   23.7240 N   0  0  0  0  0  0  0  0  0  0  0  0
   19.0740   66.0960   25.2460 N   0  0  0  0  0  0  0  0  0  0  0  0
   16.9120   60.1270   25.8460 N   0  3  3  0  0  0  0  0  0  0  0  0
   20.1580   69.1500   27.4440 O   0  5  0  0  0  0  0  0  0  0  0  0
   19.7390   68.8220   23.4090 O   0  5  0  0  0  0  0  0  0  0  0  0
   17.2840   66.2610   26.9620 O   0  0  0  0  0  0  0  0  0  0  0  0
   20.2360   68.0730   29.3680 O   0  0  0  0  0  0  0  0  0  0  0  0
   20.2700   66.6360   23.1610 O   0  0  0  0  0  0  0  0  0  0  0  0
   16.0407   60.2834   25.3808 H   0  0  0  0  0  0  0  0  0  0  0  0
  1 23  1  0  0  0  0
  2 29  1  0  0  0  0
  3 30  1  0  0  0  0
  4 36  1  0  0  0  0
  5 36  1  0  0  0  0
  6 37  1  0  0  0  0
  7 37  1  0  0  0  0
  8 38  1  0  0  0  0
  9 38  1  0  0  0  0
 10 38  1  0  0  0  0
 11 39  1  0  0  0  0
 12 39  1  0  0  0  0
 13 40  1  0  0  0  0
 14 40  1  0  0  0  0
 15 41  1  0  0  0  0
 16 41  1  0  0  0  0
 17 42  1  0  0  0  0
 18 47  1  0  0  0  0
 19 47  1  0  0  0  0
 20 48  1  0  0  0  0
 21 48  1  0  0  0  0
 22 49  1  0  0  0  0
 23 25  2  0  0  0  0
 23 43  1  0  0  0  0
 24 26  1  0  0  0  0
 24 27  1  0  0  0  0
 24 44  2  0  0  0  0
 25 39  1  0  0  0  0
 25 44  1  0  0  0  0
 26 43  2  0  0  0  0
 26 46  1  0  0  0  0
 27 45  2  0  0  0  0
 27 47  1  0  0  0  0
 28 45  1  0  0  0  0
 28 46  2  0  0  0  0
 28 48  1  0  0  0  0
 29 30  1  0  0  0  0
 29 31  2  0  0  0  0
 30 32  2  0  0  0  0
 31 33  1  0  0  0  0
 31 36  1  0  0  0  0
 32 37  1  0  0  0  0
 32 50  1  0  0  0  0
 33 49  1  0  0  0  0
 33 53  2  0  0  0  0
 34 40  1  0  0  0  0
 34 51  1  0  0  0  0
 34 54  2  0  0  0  0
 35 42  1  0  0  0  0
 35 52  1  0  0  0  0
 35 55  2  0  0  0  0
 36 37  1  0  0  0  0
 38 50  1  0  0  0  0
 39 50  1  0  0  0  0
 40 41  1  0  0  0  0
 41 42  1  0  0  0  0
 42 49  1  0  0  0  0
 50 56  1  0  0  0  0
M  CHG  3  50   1  52  -1  51  -1
M  END
> <scpdb_id>
1tdr_1

$$$$
