@<TRIPOS>MOLECULE
1tdr_MTX_1_ligand
   56    58     1     0     0
SMALL
NO_CHARGES


@<TRIPOS>ATOM
     1 N1          22.8980    58.7370    24.8460 N.ar         1 MTX170   1.0000
     2 C2          23.4730    58.3570    23.6570 C.ar         1 MTX170   0.0000
     3 NA2         24.8040    58.4450    23.7240 N.pl3        1 MTX170   0.0000
     4 N3          22.7380    58.0690    22.6070 N.ar         1 MTX170   0.0000
     5 C4          21.4480    57.7210    22.5000 C.ar         1 MTX170   0.0000
     6 NA4         20.8390    57.4620    21.4880 N.pl3        1 MTX170   0.0000
     7 C4A         20.7950    58.4340    23.6340 C.ar         1 MTX170   0.0000
     8 N5          19.4990    58.8970    23.5380 N.ar         1 MTX170   0.0000
     9 C6          18.8510    59.1430    24.6320 C.ar         1 MTX170   0.0000
    10 C7          19.6570    59.3360    25.8960 C.ar         1 MTX170   0.0000
    11 N8          20.9940    59.3880    25.7440 N.ar         1 MTX170   0.0000
    12 C8A         21.5260    58.6310    24.6630 C.ar         1 MTX170   0.0000
    13 C9          17.3870    59.0240    24.8550 C.3          1 MTX170   0.0000
    14 N10         16.9120    60.1270    25.8460 N.pl3        1 MTX170   0.0000
    15 CM          16.2740    59.4950    27.0980 C.3          1 MTX170   0.0000
    16 C11         17.9750    64.2180    25.8510 C.2          1 MTX170   0.0000
    17 C12         17.2750    63.7000    26.9640 C.2          1 MTX170   0.0000
    18 C13         17.0860    62.3390    26.9690 C.2          1 MTX170   0.0000
    19 C14         17.3240    61.6140    25.8440 C.2          1 MTX170   0.0000
    20 C15         18.1740    62.2090    24.8170 C.3          1 MTX170   0.0000
    21 C16         18.0700    63.5780    24.6820 C.3          1 MTX170   0.0000
    22 C           17.8710    65.7650    25.8080 C.2          1 MTX170   0.0000
    23 O           17.2840    66.2610    26.9620 O.2          1 MTX170   0.0000
    24 N           19.0740    66.0960    25.2460 N.am         1 MTX170   0.0000
    25 CA          19.5510    67.5790    25.2720 C.3          1 MTX170   0.0000
    26 CT          19.6640    67.5360    23.7260 C.2          1 MTX170   0.0000
    27 O1          20.2700    66.6360    23.1610 O.co2        1 MTX170   0.0000
    28 O2          19.7390    68.8220    23.4090 O.co2        1 MTX170  -1.0000
    29 CB          21.0310    67.8050    25.4590 C.3          1 MTX170   0.0000
    30 CG          21.3380    67.4360    26.9560 C.3          1 MTX170   0.0000
    31 CD          21.0250    68.4190    28.2800 C.2          1 MTX170   0.0000
    32 OE1         20.2360    68.0730    29.3680 O.co2        1 MTX170   0.0000
    33 OE2         20.1580    69.1500    27.4440 O.co2        1 MTX170  -1.0000
    34 HA21        25.3618    58.2001    22.9310 H            1 MTX170   0.0000
    35 HA22        25.2427    58.7558    24.5672 H            1 MTX170   0.0000
    36 HA41        19.8715    57.2137    21.5363 H            1 MTX170   0.0000
    37 HA42        21.3028    57.4961    20.6027 H            1 MTX170   0.0000
    38 H5          19.2227    59.4202    26.7928 H            1 MTX170   0.0000
    39 H6          17.1818    58.1233    25.2379 H            1 MTX170   0.0000
    40 H7          16.9087    59.1326    23.9835 H            1 MTX170   0.0000
    41 HM1         15.9758    60.2180    27.7212 H            1 MTX170   0.0000
    42 HM2         15.4859    58.9421    26.8275 H            1 MTX170   0.0000
    43 HM3         16.9462    58.9148    27.5579 H            1 MTX170   0.0000
    44 H11         16.9387    64.2865    27.7009 H            1 MTX170   0.0000
    45 H12         16.7730    61.8813    27.8012 H            1 MTX170   0.0000
    46 H13         17.9343    61.7935    23.9395 H            1 MTX170   0.0000
    47 H14         19.1245    61.9924    25.0398 H            1 MTX170   0.0000
    48 H15         18.8811    63.9123    24.2020 H            1 MTX170   0.0000
    49 H16         17.2544    63.7826    24.1408 H            1 MTX170   0.0000
    50 H17         19.6427    65.3913    24.8218 H            1 MTX170   0.0000
    51 HA          18.9294    68.2546    25.6685 H            1 MTX170   0.0000
    52 HB1         21.2617    68.7619    25.2824 H            1 MTX170   0.0000
    53 HB2         21.5533    67.2167    24.8417 H            1 MTX170   0.0000
    54 HG1         22.3205    67.2525    26.9880 H            1 MTX170   0.0000
    55 HG2         20.8349    66.5893    27.1292 H            1 MTX170   0.0000
    56 H23         23.3724    59.0307    25.6759 H            1 MTX170   0.0000
@<TRIPOS>BOND
     1    1    2      ar
     2    1   12      ar
     3    2    3       1
     4    2    4      ar
     5    4    5      ar
     6    5    6       1
     7    5    7      ar
     8    7    8      ar
     9    7   12      ar
    10    8    9      ar
    11    9   10      ar
    12    9   13       1
    13   10   11      ar
    14   11   12      ar
    15   13   14       1
    16   14   15       1
    17   14   19       1
    18   16   17       2
    19   16   21       1
    20   16   22       1
    21   17   18       1
    22   18   19       2
    23   19   20       1
    24   20   21       1
    25   22   23       2
    26   22   24      am
    27   24   25       1
    28   25   26       1
    29   25   29       1
    30   26   27      ar
    31   26   28      ar
    32   29   30       1
    33   30   31       1
    34   31   32      ar
    35   31   33      ar
    36    3   34       1
    37    3   35       1
    38    6   36       1
    39    6   37       1
    40   10   38       1
    41   13   39       1
    42   13   40       1
    43   15   41       1
    44   15   42       1
    45   15   43       1
    46   17   44       1
    47   18   45       1
    48   20   46       1
    49   20   47       1
    50   21   48       1
    51   21   49       1
    52   24   50       1
    53   25   51       1
    54   30   55       1
    55   29   52       1
    56   29   53       1
    57   30   54       1
    58    1   56       1
@<TRIPOS>SUBSTRUCTURE
     1 MTX170      1 GROUP             4 A     MTX     0 **** MTX A 170
