#    Name: 17171
#    Modification time : Tue Aug  8 23:47:15 2017

@<TRIPOS>MOLECULE
17171
   52     0    12     0     0
SMALL
NO_CHARGES


@<TRIPOS>ATOM
      1 N          14.4490   76.8490   22.8620 N.am      1 SEL1        0.0000 
      2 N          13.6830   77.3370   26.2010 N.am      1 SEL1        0.0000 
      3 N          14.3000   74.9450   24.5630 N.am      1 SEL1        0.0000 
      4 N          16.4960   76.9830   27.2340 N.am      1 SEL1        0.0000 
      5 NZ         14.4490   76.8490   22.8620 N.4       2 LYL3        0.0000 
      6 NZ         14.3000   74.9450   24.5630 N.4       2 LYL3        0.0000 
      7 NZ         16.4960   76.9830   27.2340 N.4       2 LYL3        0.0000 
      8 CA         16.2270   83.1750   23.8900 C.3       3 GLL5        0.0000 
      9 CA         14.6270   82.6610   25.5290 C.3       3 GLL5        0.0000 
     10 CA         13.7580   81.7760   26.1550 C.3       3 GLL5        0.0000 
     11 Zn         16.5210   75.9290   23.9460 Zn        4 ZIL7        0.0000 
     12 Zn         14.3000   74.9450   24.5630 Zn        4 ZIL7        0.0000 
     13 Zn         16.4960   76.9830   27.2340 Zn        4 ZIL7        0.0000 
     14 Zn         17.5420   78.3540   25.3330 Zn        4 ZIL7        0.0000 
     15 N          14.3480   75.6150   20.1500 N.am      5 SEP1        0.0000 
     16 N          16.4360   76.5920   20.1920 N.am      5 SEP1        0.0000 
     17 N          12.9840   77.0300   29.2870 N.am      5 SEP1        0.0000 
     18 N          12.7110   73.3830   22.8780 N.am      5 SEP1        0.0000 
     19 N          15.5960   79.4710   29.4690 N.am      5 SEP1        0.0000 
     20 NZ         15.4460   76.0240   19.5220 N.4       6 LYP3        0.0000 
     21 NZ         12.7110   73.3830   22.8780 N.4       6 LYP3        0.0000 
     22 NZ         15.5960   79.4710   29.4690 N.4       6 LYP3        0.0000 
     23 CA         14.7060   84.4750   20.1230 C.3       7 GLP5        0.0000 
     24 CA         18.6050   80.5700   21.3270 C.3       7 GLP5        0.0000 
     25 CA         14.1790   86.5930   25.0640 C.3       7 GLP5        0.0000 
     26 CA         10.4740   82.0950   28.6850 C.3       7 GLP5        0.0000 
     27 CA         18.9740   84.4470   25.8280 C.3       7 GLP5        0.0000 
     28 CA         15.6910   81.8840   28.8240 C.3       7 GLP5        0.0000 
     29 Zn         18.5230   76.6670   23.6330 Zn        8 ZIP7        0.0000 
     30 Zn         15.1610   74.8810   26.6250 Zn        8 ZIP7        0.0000 
     31 Zn         19.1390   79.4810   26.1250 Zn        8 ZIP7        0.0000 
     32 N          14.3985   76.2320   21.5060 N.am      9 SEC1        0.0000 
     33 N          15.4425   76.7205   21.5270 N.am      9 SEC1        0.0000 
     34 N          13.3335   77.1835   27.7440 N.am      9 SEC1        0.0000 
     35 N          13.5055   74.1640   23.7205 N.am      9 SEC1        0.0000 
     36 N          16.0460   78.2270   28.3515 N.am      9 SEC1        0.0000 
     37 NZ         14.9475   76.4365   21.1920 N.4      10 LYC3        0.0000 
     38 NZ         13.5800   75.1160   22.8700 N.4      10 LYC3        0.0000 
     39 NZ         13.5055   74.1640   23.7205 N.4      10 LYC3        0.0000 
     40 NZ         16.0460   78.2270   28.3515 N.4      10 LYC3        0.0000 
     41 CA         15.4665   83.8250   22.0065 C.3      11 GLC5        0.0000 
     42 CA         17.4160   81.8725   22.6085 C.3      11 GLC5        0.0000 
     43 CA         15.2030   84.8840   24.4770 C.3      11 GLC5        0.0000 
     44 CA         14.4030   84.6270   25.2965 C.3      11 GLC5        0.0000 
     45 CA         12.1160   81.9355   27.4200 C.3      11 GLC5        0.0000 
     46 CA         17.3915   83.5895   25.0010 C.3      11 GLC5        0.0000 
     47 CA         15.1459   82.1154   27.1209 C.3      11 GLC5        0.0000 
     48 Zn         17.5220   76.2980   23.7895 Zn       12 ZIC7        0.0000 
     49 Zn         14.7305   74.9130   25.5940 Zn       12 ZIC7        0.0000 
     50 Zn         15.8285   75.9320   26.9295 Zn       12 ZIC7        0.0000 
     51 Zn         18.0325   77.5105   24.4830 Zn       12 ZIC7        0.0000 
     52 Zn         18.3405   78.9175   25.7290 Zn       12 ZIC7        0.0000 
@<TRIPOS>BOND
@<TRIPOS>SUBSTRUCTURE
     1 SEL1        1 GROUP        1 Z    SEL  0     ROOT SEL Z 0
     2 LYL3        5 GROUP        1 Z    LYL  0     **** LYL Z 2
     3 GLL5        8 GROUP        1 Z    GLL  0     **** GLL Z 4
     4 ZIL7       11 GROUP        1 Z    ZIL  0     **** ZIL Z 5
     5 SEP1       15 GROUP        1 Z    SEP  0     **** SEP Z 7
     6 LYP3       20 GROUP        1 Z    LYP  0     **** LYP Z 9
     7 GLP5       23 GROUP        1 Z    GLP  0     **** GLP Z 11
     8 ZIP7       29 GROUP        1 Z    ZIP  0     **** ZIP Z 12
     9 SEC1       32 GROUP        1 Z    SEC  0     **** SEC Z 14
    10 LYC3       37 GROUP        1 Z    LYC  0     **** LYC Z 16
    11 GLC5       41 GROUP        1 Z    GLC  0     **** GLC Z 18
    12 ZIC7       48 GROUP        1 Z    ZIC  0     **** ZIC Z 19
@<TRIPOS>SET

