@<TRIPOS>MOLECULE
2opm_NI9_1_ligand
   25    25     1     0     0
SMALL
NO_CHARGES


@<TRIPOS>ATOM
     1 C1          14.7890    77.6270    25.2620 C.3          1 NI9901   0.0000
     2 O1          14.4490    76.8490    22.8620 O.co2        1 NI9901   0.0000
     3 O2          13.6830    77.3370    26.2010 O.3          1 NI9901   0.0000
     4 C2          14.3610    78.6990    24.1930 C.3          1 NI9901   0.0000
     5 O3          16.5210    75.9290    23.9460 O.co2        1 NI9901  -1.0000
     6 C3          15.2860    80.9740    24.0530 C.ar         1 NI9901   0.0000
     7 P1          16.3090    78.1660    26.2620 P.3          1 NI9901   0.0000
     8 P2          15.0250    76.2000    24.1000 P.3          1 NI9901   0.0000
     9 O4          15.9590    79.4690    27.0020 O.co2        1 NI9901   0.0000
    10 O5          14.3000    74.9450    24.5630 O.co2        1 NI9901  -1.0000
    11 O6          16.4960    76.9830    27.2340 O.co2        1 NI9901  -1.0000
    12 O7          17.5420    78.3540    25.3330 O.co2        1 NI9901  -1.0000
    13 N           14.4500    80.1100    24.6700 N.ar         1 NI9901   1.0000
    14 F           16.2270    83.1750    23.8900 F            1 NI9901   0.0000
    15 C4          14.6270    82.6610    25.5290 C.ar         1 NI9901   0.0000
    16 C5          13.6790    80.4700    25.7260 C.ar         1 NI9901   0.0000
    17 C6          13.7580    81.7760    26.1550 C.ar         1 NI9901   0.0000
    18 C7          15.3910    82.2890    24.4580 C.ar         1 NI9901   0.0000
    19 H1          12.8077    77.4622    25.7339 H            1 NI9901   0.0000
    20 H2          13.4140    78.5169    23.9283 H            1 NI9901   0.0000
    21 H3          14.9551    78.6000    23.3947 H            1 NI9901   0.0000
    22 H4          15.8411    80.6532    23.2856 H            1 NI9901   0.0000
    23 H5          14.6957    83.5978    25.8720 H            1 NI9901   0.0000
    24 H6          13.0757    79.8117    26.1762 H            1 NI9901   0.0000
    25 H7          13.1901    82.0874    26.9169 H            1 NI9901   0.0000
@<TRIPOS>BOND
     1    1    3       1
     2    1    4       1
     3    1    7       1
     4    1    8       1
     5    2    8      ar
     6    4   13       1
     7    5    8      ar
     8    6   13      ar
     9    6   18      ar
    10    7    9      ar
    11    7   11      ar
    12    7   12      ar
    13    8   10      ar
    14   13   16      ar
    15   14   18       1
    16   15   17      ar
    17   15   18      ar
    18   16   17      ar
    19   17   25       1
    20    3   19       1
    21    4   20       1
    22    4   21       1
    23   16   24       1
    24    6   22       1
    25   15   23       1
@<TRIPOS>SUBSTRUCTURE
     1 NI9901      1 GROUP             4 A     NI9     0 **** NI9 A 901
