2opm_NI9_1_ligand
  -OEChem-08111718373D

 25 25  0     1  0  0  0  0  0999 V2000
   13.1901   82.0874   26.9169 H   0  0  0  0  0  0  0  0  0  0  0  0
   14.6957   83.5978   25.8720 H   0  0  0  0  0  0  0  0  0  0  0  0
   13.0757   79.8117   26.1762 H   0  0  0  0  0  0  0  0  0  0  0  0
   15.8411   80.6532   23.2856 H   0  0  0  0  0  0  0  0  0  0  0  0
   13.4140   78.5169   23.9283 H   0  0  0  0  0  0  0  0  0  0  0  0
   14.9551   78.6000   23.3947 H   0  0  0  0  0  0  0  0  0  0  0  0
   12.8077   77.4622   25.7339 H   0  0  0  0  0  0  0  0  0  0  0  0
   13.7580   81.7760   26.1550 C   0  0  0  0  0  0  0  0  0  0  0  0
   14.6270   82.6610   25.5290 C   0  0  0  0  0  0  0  0  0  0  0  0
   13.6790   80.4700   25.7260 C   0  0  0  0  0  0  0  0  0  0  0  0
   15.2860   80.9740   24.0530 C   0  0  0  0  0  0  0  0  0  0  0  0
   15.3910   82.2890   24.4580 C   0  0  0  0  0  0  0  0  0  0  0  0
   14.3610   78.6990   24.1930 C   0  0  2  0  0  0  0  0  0  0  0  0
   14.7890   77.6270   25.2620 C   0  0  1  0  0  0  0  0  0  0  0  0
   14.4500   80.1100   24.6700 N   0  3  0  0  0  0  0  0  0  0  0  0
   16.5210   75.9290   23.9460 O   0  5  0  0  0  0  0  0  0  0  0  0
   14.3000   74.9450   24.5630 O   0  5  0  0  0  0  0  0  0  0  0  0
   16.4960   76.9830   27.2340 O   0  5  0  0  0  0  0  0  0  0  0  0
   17.5420   78.3540   25.3330 O   0  5  0  0  0  0  0  0  0  0  0  0
   14.4490   76.8490   22.8620 O   0  0  0  0  0  0  0  0  0  0  0  0
   15.9590   79.4690   27.0020 O   0  0  0  0  0  0  0  0  0  0  0  0
   13.6830   77.3370   26.2010 O   0  0  0  0  0  0  0  0  0  0  0  0
   16.2270   83.1750   23.8900 F   0  0  0  0  0  0  0  0  0  0  0  0
   15.0250   76.2000   24.1000 P   0  0  0  0  0  0  0  0  0  0  0  0
   16.3090   78.1660   26.2620 P   0  0  0  0  0  0  0  0  0  0  0  0
  1  8  1  0  0  0  0
  2  9  1  0  0  0  0
  3 10  1  0  0  0  0
  4 11  1  0  0  0  0
  5 13  1  0  0  0  0
  6 13  1  0  0  0  0
  7 22  1  0  0  0  0
  8  9  1  0  0  0  0
  8 10  2  0  0  0  0
  9 12  2  0  0  0  0
 10 15  1  0  0  0  0
 11 12  1  0  0  0  0
 11 15  2  0  0  0  0
 12 23  1  0  0  0  0
 13 14  1  0  0  0  0
 13 15  1  0  0  0  0
 14 22  1  0  0  0  0
 14 24  1  0  0  0  0
 14 25  1  0  0  0  0
 16 24  1  0  0  0  0
 17 24  1  0  0  0  0
 18 25  1  0  0  0  0
 19 25  1  0  0  0  0
 20 24  2  0  0  0  0
 21 25  2  0  0  0  0
M  CHG  5  16  -1  17  -1  18  -1  19  -1  15   1
M  END
> <scpdb_id>
2opm_1

$$$$
