#    Name: 17913
#    Modification time : Tue Aug  8 22:45:38 2017

@<TRIPOS>MOLECULE
17913
   80     0     9     0     0
SMALL
NO_CHARGES


@<TRIPOS>ATOM
      1 N           0.9430  -10.1400   24.9290 N.am      1 SEL1        0.0000 
      2 N           1.6140  -12.6130   24.6680 N.am      1 SEL1        0.0000 
      3 N          -2.5030  -11.9830   21.3860 N.am      1 SEL1        0.0000 
      4 N          -1.1260  -17.5400   15.8250 N.am      1 SEL1        0.0000 
      5 N          -1.6990  -15.6130   17.0410 N.am      1 SEL1        0.0000 
      6 N           3.4240   -3.2290   30.6850 N.am      1 SEL1        0.0000 
      7 N           0.2370   -3.4810   33.8980 N.am      1 SEL1        0.0000 
      8 N           1.7880   -8.4300   26.8260 N.am      1 SEL1        0.0000 
      9 N           3.3280   -8.7480   22.3900 N.am      1 SEL1        0.0000 
     10 N           5.3200   -9.9560   23.4320 N.am      1 SEL1        0.0000 
     11 O          -2.5030  -11.9830   21.3860 O.2       2 ALL2        0.0000 
     12 O          -3.0670  -14.5800   21.0160 O.2       2 ALL2        0.0000 
     13 O           0.3910  -19.1160   16.6220 O.2       2 ALL2        0.0000 
     14 O           1.8270   -3.3210   32.2890 O.2       2 ALL2        0.0000 
     15 CA         -1.0970   -8.3120   33.8540 C.3       3 GLL5        0.0000 
     16 CA         -0.2730  -11.7660   32.3950 C.3       3 GLL5        0.0000 
     17 CA          0.2370   -8.0350   31.8570 C.3       3 GLL5        0.0000 
     18 CA          1.4230   -7.6150   29.6430 C.3       3 GLL5        0.0000 
     19 CA          3.9970   -9.1460   26.1160 C.3       3 GLL5        0.0000 
     20 CA          0.3130   -9.4130   31.6950 C.3       3 GLL5        0.0000 
     21 CA          3.1610   -8.4040   27.2010 C.3       3 GLL5        0.0000 
     22 CA         -1.0420   -9.6950   33.6800 C.3       3 GLL5        0.0000 
     23 N          -1.6250  -10.0980   26.3430 N.am      4 SEP1        0.0000 
     24 N           2.0550  -13.0190   27.5390 N.am      4 SEP1        0.0000 
     25 N          -4.8530  -10.6150   22.0340 N.am      4 SEP1        0.0000 
     26 N          -1.7740  -19.3600   13.6040 N.am      4 SEP1        0.0000 
     27 N          -4.8380  -14.7240   16.4230 N.am      4 SEP1        0.0000 
     28 N           4.8230   -4.0770   28.3430 N.am      4 SEP1        0.0000 
     29 N           4.9080   -0.9920   29.9200 N.am      4 SEP1        0.0000 
     30 N           0.4590   -1.4400   35.7740 N.am      4 SEP1        0.0000 
     31 N          -0.5090   -7.0060   26.3200 N.am      4 SEP1        0.0000 
     32 N           2.6480   -9.3770   19.8280 N.am      4 SEP1        0.0000 
     33 N           3.8110   -6.1470   20.8780 N.am      4 SEP1        0.0000 
     34 N           6.4540  -11.7740   21.5510 N.am      4 SEP1        0.0000 
     35 N           7.9540  -10.8520   24.1320 N.am      4 SEP1        0.0000 
     36 O          -4.5790  -12.9050   18.9790 O.2       5 ALP2        0.0000 
     37 O          -2.7780  -11.6920   18.7360 O.2       5 ALP2        0.0000 
     38 O           0.1560  -21.1150   14.5850 O.2       5 ALP2        0.0000 
     39 O           2.5850   -0.8860   33.4000 O.2       5 ALP2        0.0000 
     40 CA         -4.4440   -6.4880   33.7860 C.3       6 GLP5        0.0000 
     41 CA          2.9370   -6.4090   34.2230 C.3       6 GLP5        0.0000 
     42 CA          2.2170  -10.2650   34.3330 C.3       6 GLP5        0.0000 
     43 CA         -1.9190   -5.7540   28.8550 C.3       6 GLP5        0.0000 
     44 CA         -0.6580  -11.1560   28.3170 C.3       6 GLP5        0.0000 
     45 CA          1.8380   -3.8810   27.7380 C.3       6 GLP5        0.0000 
     46 CA          7.0930  -12.2070   26.0000 C.3       6 GLP5        0.0000 
     47 CA          6.1730   -6.1470   24.0120 C.3       6 GLP5        0.0000 
     48 CA          2.2300   -5.7450   24.0220 C.3       6 GLP5        0.0000 
     49 N          -0.3410  -10.1190   25.6360 N.am      7 SEC1        0.0000 
     50 N           1.8345  -12.8160   26.1035 N.am      7 SEC1        0.0000 
     51 N          -3.6780  -11.2990   21.7100 N.am      7 SEC1        0.0000 
     52 N          -1.4500  -18.4500   14.7145 N.am      7 SEC1        0.0000 
     53 N          -3.2685  -15.1685   16.7320 N.am      7 SEC1        0.0000 
     54 N           4.1235   -3.6530   29.5140 N.am      7 SEC1        0.0000 
     55 N           4.1660   -2.1105   30.3025 N.am      7 SEC1        0.0000 
     56 N           0.3480   -2.4605   34.8360 N.am      7 SEC1        0.0000 
     57 N           0.6395   -7.7180   26.5730 N.am      7 SEC1        0.0000 
     58 N           2.9880   -9.0625   21.1090 N.am      7 SEC1        0.0000 
     59 N           3.5695   -7.4475   21.6340 N.am      7 SEC1        0.0000 
     60 N           5.8870  -10.8650   22.4915 N.am      7 SEC1        0.0000 
     61 N           6.6370  -10.4040   23.7820 N.am      7 SEC1        0.0000 
     62 O          -3.5410  -12.4440   20.1825 O.2       8 ALC2        0.0000 
     63 O          -2.6405  -11.8375   20.0610 O.2       8 ALC2        0.0000 
     64 O          -3.8230  -13.7425   19.9975 O.2       8 ALC2        0.0000 
     65 O           0.2735  -20.1155   15.6035 O.2       8 ALC2        0.0000 
     66 O           2.2060   -2.1035   32.8445 O.2       8 ALC2        0.0000 
     67 CA         -2.7705   -7.4000   33.8200 C.3       9 GLC5        0.0000 
     68 CA          0.9200   -7.3605   34.0385 C.3       9 GLC5        0.0000 
     69 CA          0.9720  -11.0155   33.3640 C.3       9 GLC5        0.0000 
     70 CA         -0.8410   -6.8945   30.3560 C.3       9 GLC5        0.0000 
     71 CA          1.5870   -7.2220   33.0400 C.3       9 GLC5        0.0000 
     72 CA          0.3825   -9.3855   28.9800 C.3       9 GLC5        0.0000 
     73 CA         -0.2480   -6.6845   29.2490 C.3       9 GLC5        0.0000 
     74 CA          1.6305   -5.7480   28.6905 C.3       9 GLC5        0.0000 
     75 CA          5.5450  -10.6765   26.0580 C.3       9 GLC5        0.0000 
     76 CA          5.0850   -7.6465   25.0640 C.3       9 GLC5        0.0000 
     77 CA          1.2460   -9.4945   33.0545 C.3       9 GLC5        0.0000 
     78 CA          2.9045   -7.2600   25.3402 C.3       9 GLC5        0.0000 
     79 CA          0.6322   -9.7851   34.2056 C.3       9 GLC5        0.0000 
     80 CA         -0.4083  -10.7879   30.3203 C.3       9 GLC5        0.0000 
@<TRIPOS>BOND
@<TRIPOS>SUBSTRUCTURE
     1 SEL1        1 GROUP        1 Z    SEL  0     ROOT SEL Z 0
     2 ALL2       11 GROUP        1 Z    ALL  0     **** ALL Z 1
     3 GLL5       15 GROUP        1 Z    GLL  0     **** GLL Z 4
     4 SEP1       23 GROUP        1 Z    SEP  0     **** SEP Z 7
     5 ALP2       36 GROUP        1 Z    ALP  0     **** ALP Z 8
     6 GLP5       40 GROUP        1 Z    GLP  0     **** GLP Z 11
     7 SEC1       49 GROUP        1 Z    SEC  0     **** SEC Z 14
     8 ALC2       62 GROUP        1 Z    ALC  0     **** ALC Z 15
     9 GLC5       67 GROUP        1 Z    GLC  0     **** GLC Z 18
@<TRIPOS>SET

