2q0l_FAD_1_ligand
  -OEChem-08111718373D

 84 89  0     1  0  0  0  0  0999 V2000
   -1.5974   -7.9166   34.6242 H   0  0  0  0  0  0  0  0  0  0  0  0
    0.8305   -9.8022   30.9329 H   0  0  0  0  0  0  0  0  0  0  0  0
   -2.3905  -16.1074   15.2205 H   0  0  0  0  0  0  0  0  0  0  0  0
    0.7243  -16.0397   20.6952 H   0  0  0  0  0  0  0  0  0  0  0  0
   -1.2351  -12.9142   22.6450 H   0  0  0  0  0  0  0  0  0  0  0  0
   -1.1784  -14.9655   21.6461 H   0  0  0  0  0  0  0  0  0  0  0  0
   -0.3786  -11.4765   20.5035 H   0  0  0  0  0  0  0  0  0  0  0  0
   -1.7069  -13.7526   19.0725 H   0  0  0  0  0  0  0  0  0  0  0  0
   -1.6405  -11.5559   34.4311 H   0  0  0  0  0  0  0  0  0  0  0  0
   -1.3996  -10.4440   35.6026 H   0  0  0  0  0  0  0  0  0  0  0  0
   -2.7473  -10.3818   34.6826 H   0  0  0  0  0  0  0  0  0  0  0  0
    0.2707  -11.9686   31.5805 H   0  0  0  0  0  0  0  0  0  0  0  0
    0.1506  -12.1939   33.1934 H   0  0  0  0  0  0  0  0  0  0  0  0
   -1.1985  -12.1255   32.2759 H   0  0  0  0  0  0  0  0  0  0  0  0
    1.0904  -13.1841   22.3027 H   0  0  0  0  0  0  0  0  0  0  0  0
    1.8276  -12.1694   21.2569 H   0  0  0  0  0  0  0  0  0  0  0  0
    1.3827   -6.8501   29.0002 H   0  0  0  0  0  0  0  0  0  0  0  0
    0.8445   -8.3602   29.3111 H   0  0  0  0  0  0  0  0  0  0  0  0
    3.8231  -10.1291   26.1730 H   0  0  0  0  0  0  0  0  0  0  0  0
    4.9702   -8.9704   26.2644 H   0  0  0  0  0  0  0  0  0  0  0  0
    2.9560   -8.6046   30.6056 H   0  0  0  0  0  0  0  0  0  0  0  0
    3.4639   -7.4519   27.2439 H   0  0  0  0  0  0  0  0  0  0  0  0
    2.7849   -9.8825   28.6315 H   0  0  0  0  0  0  0  0  0  0  0  0
    2.0457   -2.3923   32.5885 H   0  0  0  0  0  0  0  0  0  0  0  0
    0.2579  -19.6602   15.7937 H   0  0  0  0  0  0  0  0  0  0  0  0
    1.0247  -19.4290   17.3295 H   0  0  0  0  0  0  0  0  0  0  0  0
   -2.6848  -11.9744   20.4027 H   0  0  0  0  0  0  0  0  0  0  0  0
   -3.5137  -13.9185   20.4136 H   0  0  0  0  0  0  0  0  0  0  0  0
    3.3070   -6.2105   30.1872 H   0  0  0  0  0  0  0  0  0  0  0  0
    1.6817   -8.9636   25.9870 H   0  0  0  0  0  0  0  0  0  0  0  0
    4.9053  -10.2189   28.4700 H   0  0  0  0  0  0  0  0  0  0  0  0
   -1.0970   -8.3120   33.8540 C   0  0  0  0  0  0  0  0  0  0  0  0
    0.3130   -9.4130   31.6950 C   0  0  0  0  0  0  0  0  0  0  0  0
   -1.7890  -16.3970   15.9650 C   0  0  0  0  0  0  0  0  0  0  0  0
    0.3280  -16.2200   19.7950 C   0  0  0  0  0  0  0  0  0  0  0  0
   -1.0420   -9.6950   33.6800 C   0  0  0  0  0  0  0  0  0  0  0  0
   -0.3370  -10.2500   32.6020 C   0  0  0  0  0  0  0  0  0  0  0  0
   -0.4460   -7.4930   32.9410 C   0  0  0  0  0  0  0  0  0  0  0  0
   -0.1310  -17.1670   17.9240 C   0  0  0  0  0  0  0  0  0  0  0  0
    0.2370   -8.0350   31.8570 C   0  0  0  0  0  0  0  0  0  0  0  0
    0.5120   -5.3220   32.4970 C   0  0  0  0  0  0  0  0  0  0  0  0
   -0.8550  -15.9790   18.0180 C   0  0  0  0  0  0  0  0  0  0  0  0
   -0.2800  -17.9670   16.7840 C   0  0  0  0  0  0  0  0  0  0  0  0
    0.8210   -4.0270   32.9490 C   0  0  0  0  0  0  0  0  0  0  0  0
    1.2120   -5.8660   31.4220 C   0  0  0  0  0  0  0  0  0  0  0  0
    2.5310   -3.8700   31.2310 C   0  0  0  0  0  0  0  0  0  0  0  0
   -1.4200  -12.8760   21.6630 C   0  0  1  0  0  0  0  0  0  0  0  0
   -1.6590  -14.2770   21.1030 C   0  0  2  0  0  0  0  0  0  0  0  0
   -0.1990  -12.3750   20.9040 C   0  0  1  0  0  0  0  0  0  0  0  0
   -1.0590  -14.1680   19.7110 C   0  0  2  0  0  0  0  0  0  0  0  0
   -1.7710  -10.5980   34.6870 C   0  0  0  0  0  0  0  0  0  0  0  0
   -0.2730  -11.7660   32.3950 C   0  0  0  0  0  0  0  0  0  0  0  0
    1.0050  -12.3210   21.8050 C   0  0  1  0  0  0  0  0  0  0  0  0
    1.4230   -7.6150   29.6430 C   0  0  1  0  0  0  0  0  0  0  0  0
    3.9970   -9.1460   26.1160 C   0  0  2  0  0  0  0  0  0  0  0  0
    2.8570   -8.1050   29.7450 C   0  0  1  0  0  0  0  0  0  0  0  0
    3.1610   -8.4040   27.2010 C   0  0  2  0  0  0  0  0  0  0  0  0
    3.3080   -9.0310   28.5950 C   0  0  1  0  0  0  0  0  0  0  0  0
   -1.6990  -15.6130   17.0410 N   0  0  0  0  0  0  0  0  0  0  0  0
   -1.1260  -17.5400   15.8250 N   0  0  0  0  0  0  0  0  0  0  0  0
    0.6120  -17.2860   19.0500 N   0  0  0  0  0  0  0  0  0  0  0  0
   -0.4870   -6.1040   33.0830 N   0  0  0  0  0  0  0  0  0  0  0  0
    2.2300   -5.1400   30.7990 N   0  0  0  0  0  0  0  0  0  0  0  0
    1.8270   -3.3210   32.2890 N   0  0  0  0  0  0  0  0  0  0  0  0
   -0.5480  -15.4270   19.1910 N   0  0  0  0  0  0  0  0  0  0  0  0
    0.9210   -7.1610   30.9790 N   0  0  0  0  0  0  0  0  0  0  0  0
    0.3910  -19.1160   16.6220 N   0  0  0  0  0  0  0  0  0  0  0  0
    1.6140  -12.6130   24.6680 O   0  5  0  0  0  0  0  0  0  0  0  0
    5.3200   -9.9560   23.4320 O   0  5  0  0  0  0  0  0  0  0  0  0
    0.2370   -3.4810   33.8980 O   0  0  0  0  0  0  0  0  0  0  0  0
    3.4240   -3.2290   30.6850 O   0  0  0  0  0  0  0  0  0  0  0  0
    0.9430  -10.1400   24.9290 O   0  0  0  0  0  0  0  0  0  0  0  0
    3.3280   -8.7480   22.3900 O   0  0  0  0  0  0  0  0  0  0  0  0
    0.1180  -13.3370   19.8720 O   0  0  0  0  0  0  0  0  0  0  0  0
   -2.5030  -11.9830   21.3860 O   0  0  0  0  0  0  0  0  0  0  0  0
   -3.0670  -14.5800   21.0160 O   0  0  0  0  0  0  0  0  0  0  0  0
    3.7570   -6.9980   29.7660 O   0  0  0  0  0  0  0  0  0  0  0  0
    1.7880   -8.4300   26.8260 O   0  0  0  0  0  0  0  0  0  0  0  0
    4.6840   -9.3130   28.8310 O   0  0  0  0  0  0  0  0  0  0  0  0
    0.8420  -11.2410   22.7380 O   0  0  0  0  0  0  0  0  0  0  0  0
    3.6190   -8.6710   24.8390 O   0  0  0  0  0  0  0  0  0  0  0  0
    3.1080  -10.8890   23.7700 O   0  0  0  0  0  0  0  0  0  0  0  0
    1.5760  -11.2270   24.1370 P   0  0  2  0  0  0  0  0  0  0  0  0
    3.9160   -9.5200   23.5010 P   0  0  2  0  0  0  0  0  0  0  0  0
  1 32  1  0  0  0  0
  2 33  1  0  0  0  0
  3 34  1  0  0  0  0
  4 35  1  0  0  0  0
  5 47  1  0  0  0  0
  6 48  1  0  0  0  0
  7 49  1  0  0  0  0
  8 50  1  0  0  0  0
  9 51  1  0  0  0  0
 10 51  1  0  0  0  0
 11 51  1  0  0  0  0
 12 52  1  0  0  0  0
 13 52  1  0  0  0  0
 14 52  1  0  0  0  0
 15 53  1  0  0  0  0
 16 53  1  0  0  0  0
 17 54  1  0  0  0  0
 18 54  1  0  0  0  0
 19 55  1  0  0  0  0
 20 55  1  0  0  0  0
 21 56  1  0  0  0  0
 22 57  1  0  0  0  0
 23 58  1  0  0  0  0
 24 64  1  0  0  0  0
 25 67  1  0  0  0  0
 26 67  1  0  0  0  0
 27 75  1  0  0  0  0
 28 76  1  0  0  0  0
 29 77  1  0  0  0  0
 30 78  1  0  0  0  0
 31 79  1  0  0  0  0
 32 36  1  0  0  0  0
 32 38  2  0  0  0  0
 33 37  1  0  0  0  0
 33 40  2  0  0  0  0
 34 59  1  0  0  0  0
 34 60  2  0  0  0  0
 35 61  2  0  0  0  0
 35 65  1  0  0  0  0
 36 37  2  0  0  0  0
 36 51  1  0  0  0  0
 37 52  1  0  0  0  0
 38 40  1  0  0  0  0
 38 62  1  0  0  0  0
 39 42  1  0  0  0  0
 39 43  2  0  0  0  0
 39 61  1  0  0  0  0
 40 66  1  0  0  0  0
 41 44  1  0  0  0  0
 41 45  1  0  0  0  0
 41 62  2  0  0  0  0
 42 59  2  0  0  0  0
 42 65  1  0  0  0  0
 43 60  1  0  0  0  0
 43 67  1  0  0  0  0
 44 64  1  0  0  0  0
 44 70  2  0  0  0  0
 45 63  2  0  0  0  0
 45 66  1  0  0  0  0
 46 63  1  0  0  0  0
 46 64  1  0  0  0  0
 46 71  2  0  0  0  0
 47 48  1  0  0  0  0
 47 49  1  0  0  0  0
 47 75  1  0  0  0  0
 48 50  1  0  0  0  0
 48 76  1  0  0  0  0
 49 53  1  0  0  0  0
 49 74  1  0  0  0  0
 50 65  1  0  0  0  0
 50 74  1  0  0  0  0
 53 80  1  0  0  0  0
 54 56  1  0  0  0  0
 54 66  1  0  0  0  0
 55 57  1  0  0  0  0
 55 81  1  0  0  0  0
 56 58  1  0  0  0  0
 56 77  1  0  0  0  0
 57 58  1  0  0  0  0
 57 78  1  0  0  0  0
 58 79  1  0  0  0  0
 68 83  1  0  0  0  0
 69 84  1  0  0  0  0
 72 83  2  0  0  0  0
 73 84  2  0  0  0  0
 80 83  1  0  0  0  0
 81 84  1  0  0  0  0
 82 83  1  0  0  0  0
 82 84  1  0  0  0  0
M  CHG  2  68  -1  69  -1
M  END
> <scpdb_id>
2q0l_1

$$$$
