@<TRIPOS>MOLECULE
2q0l_FAD_1_ligand
   84    89     1     0     0
SMALL
NO_CHARGES


@<TRIPOS>ATOM
     1 PA           1.5760   -11.2270    24.1370 P.3          1 FAD400   0.0000
     2 O1A          0.9430   -10.1400    24.9290 O.co2        1 FAD400   0.0000
     3 O2A          1.6140   -12.6130    24.6680 O.co2        1 FAD400  -1.0000
     4 O5B          0.8420   -11.2410    22.7380 O.3          1 FAD400   0.0000
     5 C5B          1.0050   -12.3210    21.8050 C.3          1 FAD400   0.0000
     6 C4B         -0.1990   -12.3750    20.9040 C.3          1 FAD400   0.0000
     7 O4B          0.1180   -13.3370    19.8720 O.3          1 FAD400   0.0000
     8 C3B         -1.4200   -12.8760    21.6630 C.3          1 FAD400   0.0000
     9 O3B         -2.5030   -11.9830    21.3860 O.3          1 FAD400   0.0000
    10 C2B         -1.6590   -14.2770    21.1030 C.3          1 FAD400   0.0000
    11 O2B         -3.0670   -14.5800    21.0160 O.3          1 FAD400   0.0000
    12 C1B         -1.0590   -14.1680    19.7110 C.3          1 FAD400   0.0000
    13 N9A         -0.5480   -15.4270    19.1910 N.pl3        1 FAD400   0.0000
    14 C8A          0.3280   -16.2200    19.7950 C.2          1 FAD400   0.0000
    15 N7A          0.6120   -17.2860    19.0500 N.2          1 FAD400   0.0000
    16 C5A         -0.1310   -17.1670    17.9240 C.ar         1 FAD400   0.0000
    17 C6A         -0.2800   -17.9670    16.7840 C.ar         1 FAD400   0.0000
    18 N6A          0.3910   -19.1160    16.6220 N.pl3        1 FAD400   0.0000
    19 N1A         -1.1260   -17.5400    15.8250 N.ar         1 FAD400   0.0000
    20 C2A         -1.7890   -16.3970    15.9650 C.ar         1 FAD400   0.0000
    21 N3A         -1.6990   -15.6130    17.0410 N.ar         1 FAD400   0.0000
    22 C4A         -0.8550   -15.9790    18.0180 C.ar         1 FAD400   0.0000
    23 N1           2.2300    -5.1400    30.7990 N.2          1 FAD400   0.0000
    24 C2           2.5310    -3.8700    31.2310 C.2          1 FAD400   0.0000
    25 O2           3.4240    -3.2290    30.6850 O.2          1 FAD400   0.0000
    26 N3           1.8270    -3.3210    32.2890 N.pl3        1 FAD400   0.0000
    27 C4           0.8210    -4.0270    32.9490 C.2          1 FAD400   0.0000
    28 O4           0.2370    -3.4810    33.8980 O.2          1 FAD400   0.0000
    29 C4X          0.5120    -5.3220    32.4970 C.2          1 FAD400   0.0000
    30 N5          -0.4870    -6.1040    33.0830 N.2          1 FAD400   0.0000
    31 C5X         -0.4460    -7.4930    32.9410 C.ar         1 FAD400   0.0000
    32 C6          -1.0970    -8.3120    33.8540 C.ar         1 FAD400   0.0000
    33 C7          -1.0420    -9.6950    33.6800 C.ar         1 FAD400   0.0000
    34 C7M         -1.7710   -10.5980    34.6870 C.3          1 FAD400   0.0000
    35 C8          -0.3370   -10.2500    32.6020 C.ar         1 FAD400   0.0000
    36 C8M         -0.2730   -11.7660    32.3950 C.3          1 FAD400   0.0000
    37 C9           0.3130    -9.4130    31.6950 C.ar         1 FAD400   0.0000
    38 C9A          0.2370    -8.0350    31.8570 C.ar         1 FAD400   0.0000
    39 N10          0.9210    -7.1610    30.9790 N.pl3        1 FAD400   0.0000
    40 C10          1.2120    -5.8660    31.4220 C.2          1 FAD400   0.0000
    41 C1'          1.4230    -7.6150    29.6430 C.3          1 FAD400   0.0000
    42 C2'          2.8570    -8.1050    29.7450 C.3          1 FAD400   0.0000
    43 O2'          3.7570    -6.9980    29.7660 O.3          1 FAD400   0.0000
    44 C3'          3.3080    -9.0310    28.5950 C.3          1 FAD400   0.0000
    45 O3'          4.6840    -9.3130    28.8310 O.3          1 FAD400   0.0000
    46 C4'          3.1610    -8.4040    27.2010 C.3          1 FAD400   0.0000
    47 O4'          1.7880    -8.4300    26.8260 O.3          1 FAD400   0.0000
    48 C5'          3.9970    -9.1460    26.1160 C.3          1 FAD400   0.0000
    49 O5'          3.6190    -8.6710    24.8390 O.3          1 FAD400   0.0000
    50 P            3.9160    -9.5200    23.5010 P.3          1 FAD400   0.0000
    51 O1P          3.3280    -8.7480    22.3900 O.co2        1 FAD400   0.0000
    52 O2P          5.3200    -9.9560    23.4320 O.co2        1 FAD400  -1.0000
    53 O3P          3.1080   -10.8890    23.7700 O.3          1 FAD400   0.0000
    54 H5B1         1.0904   -13.1841    22.3027 H            1 FAD400   0.0000
    55 H5B2         1.8276   -12.1694    21.2569 H            1 FAD400   0.0000
    56 H4B         -0.3786   -11.4765    20.5035 H            1 FAD400   0.0000
    57 H3B         -1.2351   -12.9142    22.6450 H            1 FAD400   0.0000
    58 H5          -2.6848   -11.9744    20.4027 H            1 FAD400   0.0000
    59 H2B         -1.1784   -14.9655    21.6461 H            1 FAD400   0.0000
    60 H7          -3.5137   -13.9185    20.4136 H            1 FAD400   0.0000
    61 H1B         -1.7069   -13.7526    19.0725 H            1 FAD400   0.0000
    62 H8A          0.7243   -16.0397    20.6952 H            1 FAD400   0.0000
    63 H6A1         0.2579   -19.6602    15.7937 H            1 FAD400   0.0000
    64 H6A2         1.0247   -19.4290    17.3295 H            1 FAD400   0.0000
    65 H2A         -2.3905   -16.1074    15.2205 H            1 FAD400   0.0000
    66 H13          2.0457    -2.3923    32.5885 H            1 FAD400   0.0000
    67 H14         -1.5974    -7.9166    34.6242 H            1 FAD400   0.0000
    68 H7M1        -1.6405   -11.5559    34.4311 H            1 FAD400   0.0000
    69 H7M2        -1.3996   -10.4440    35.6026 H            1 FAD400   0.0000
    70 H7M3        -2.7473   -10.3818    34.6826 H            1 FAD400   0.0000
    71 H8M1         0.2707   -11.9686    31.5805 H            1 FAD400   0.0000
    72 H8M2         0.1506   -12.1939    33.1934 H            1 FAD400   0.0000
    73 H8M3        -1.1985   -12.1255    32.2759 H            1 FAD400   0.0000
    74 H21          0.8305    -9.8022    30.9329 H            1 FAD400   0.0000
    75 H1'1         1.3827    -6.8501    29.0002 H            1 FAD400   0.0000
    76 H1'2         0.8445    -8.3602    29.3111 H            1 FAD400   0.0000
    77 H2'          2.9560    -8.6046    30.6056 H            1 FAD400   0.0000
    78 H25          3.3070    -6.2105    30.1872 H            1 FAD400   0.0000
    79 H3'          2.7849    -9.8825    28.6315 H            1 FAD400   0.0000
    80 H27          4.9053   -10.2189    28.4700 H            1 FAD400   0.0000
    81 H4'          3.4639    -7.4519    27.2439 H            1 FAD400   0.0000
    82 H29          1.6817    -8.9636    25.9870 H            1 FAD400   0.0000
    83 H5'1         3.8231   -10.1291    26.1730 H            1 FAD400   0.0000
    84 H5'2         4.9702    -8.9704    26.2644 H            1 FAD400   0.0000
@<TRIPOS>BOND
     1    1    2      ar
     2    1    3      ar
     3    1    4       1
     4    1   53       1
     5    4    5       1
     6    5    6       1
     7    6    7       1
     8    6    8       1
     9    7   12       1
    10    8    9       1
    11    8   10       1
    12   10   11       1
    13   10   12       1
    14   12   13       1
    15   13   14       1
    16   13   22       1
    17   14   15       2
    18   15   16       1
    19   16   17      ar
    20   16   22      ar
    21   17   18       1
    22   17   19      ar
    23   19   20      ar
    24   20   21      ar
    25   21   22      ar
    26   23   24       1
    27   23   40       2
    28   24   25       2
    29   24   26       1
    30   26   27       1
    31   27   28       2
    32   27   29       1
    33   29   30       2
    34   29   40       1
    35   30   31       1
    36   31   32      ar
    37   31   38      ar
    38   32   33      ar
    39   33   34       1
    40   33   35      ar
    41   35   36       1
    42   35   37      ar
    43   37   38      ar
    44   38   39       1
    45   39   40       1
    46   39   41       1
    47   41   42       1
    48   42   43       1
    49   42   44       1
    50   44   45       1
    51   44   46       1
    52   46   47       1
    53   46   48       1
    54   48   49       1
    55   49   50       1
    56   50   51      ar
    57   50   52      ar
    58   50   53       1
    59   48   84       1
    60    5   54       1
    61    5   55       1
    62    6   56       1
    63    8   57       1
    64    9   58       1
    65   10   59       1
    66   11   60       1
    67   12   61       1
    68   14   62       1
    69   18   63       1
    70   18   64       1
    71   20   65       1
    72   26   66       1
    73   32   67       1
    74   34   68       1
    75   34   69       1
    76   34   70       1
    77   36   71       1
    78   36   72       1
    79   36   73       1
    80   37   74       1
    81   41   75       1
    82   41   76       1
    83   42   77       1
    84   43   78       1
    85   44   79       1
    86   45   80       1
    87   46   81       1
    88   47   82       1
    89   48   83       1
@<TRIPOS>SUBSTRUCTURE
     1 FAD400      1 GROUP             4 A     FAD     0 **** FAD A 400
