#    Name: 14783
#    Modification time : Tue Aug  8 21:51:17 2017

@<TRIPOS>MOLECULE
14783
   56     0    12     0     0
SMALL
NO_CHARGES


@<TRIPOS>ATOM
      1 N          10.5230   -0.6040   17.0830 N.am      1 SEL1        0.0000 
      2 N          10.6080   -0.0460   19.5080 N.am      1 SEL1        0.0000 
      3 N          13.8320   -4.3840   25.7830 N.am      1 SEL1        0.0000 
      4 N           9.1210   -1.9960   18.5000 N.am      1 SEL1        0.0000 
      5 N           8.5410   -2.0540   20.9220 N.am      1 SEL1        0.0000 
      6 N           6.9960   -2.9770   19.0530 N.am      1 SEL1        0.0000 
      7 N          -0.7452    3.5777   24.9979 N.am      1 SEL1        0.0000 
      8 NZ         10.6080   -0.0460   19.5080 N.4       2 LYL3        0.0000 
      9 NZ          8.5410   -2.0540   20.9220 N.4       2 LYL3        0.0000 
     10 NZ         10.4630   -8.4120   21.6250 N.4       2 LYL3        0.0000 
     11 CA         12.0300   -4.5070   18.5870 C.3       3 GLL5        0.0000 
     12 CA         11.6100   -5.7180   20.5790 C.3       3 GLL5        0.0000 
     13 CA         12.9620   -5.0210   20.6400 C.3       3 GLL5        0.0000 
     14 CA          4.8470    1.4280   20.0780 C.3       3 GLL5        0.0000 
     15 CA          2.2080    2.8590   25.6720 C.3       3 GLL5        0.0000 
     16 CA          3.3210    2.0520   25.7890 C.3       3 GLL5        0.0000 
     17 CZ         13.5995   -4.3655   24.4248 C.ar      4 PHL6        0.0000 
     18 N           8.4780    1.1660   15.9780 N.am      5 SEP1        0.0000 
     19 N          11.5150    0.7120   21.9970 N.am      5 SEP1        0.0000 
     20 N          12.3170    2.3180   18.8220 N.am      5 SEP1        0.0000 
     21 N          13.7620   -4.6710   28.6210 N.am      5 SEP1        0.0000 
     22 N           8.6040   -3.7250   16.0430 N.am      5 SEP1        0.0000 
     23 N           8.8570   -4.2290   22.7580 N.am      5 SEP1        0.0000 
     24 N          10.3640   -1.0780   22.8680 N.am      5 SEP1        0.0000 
     25 N          -3.8040    3.7690   25.3230 N.am      5 SEP1        0.0000 
     26 NZ         11.1850   -0.0520   23.0400 N.4       6 LYP3        0.0000 
     27 NZ          8.6040   -5.4840   22.3870 N.4       6 LYP3        0.0000 
     28 CA         15.7190   -5.7060   17.4820 C.3       7 GLP5        0.0000 
     29 CA          9.7570   -6.3770   24.3900 C.3       7 GLP5        0.0000 
     30 CA         15.4680   -7.5570   18.8240 C.3       7 GLP5        0.0000 
     31 CA          6.9240    4.9630   20.5430 C.3       7 GLP5        0.0000 
     32 CA          0.0210    1.3750   28.8130 C.3       7 GLP5        0.0000 
     33 CA          2.5340    6.9370   27.4780 C.3       7 GLP5        0.0000 
     34 CA          3.6410    1.6390   30.0620 C.3       7 GLP5        0.0000 
     35 CZ         17.0046   -3.9974   22.5460 C.ar      8 PHP6        0.0000 
     36 N           9.5005    0.2810   16.5305 N.am      9 SEC1        0.0000 
     37 N          11.0615    0.3330   20.7525 N.am      9 SEC1        0.0000 
     38 N          11.4625    1.1360   19.1650 N.am      9 SEC1        0.0000 
     39 N          13.7970   -4.5275   27.2020 N.am      9 SEC1        0.0000 
     40 N           8.8625   -2.8605   17.2715 N.am      9 SEC1        0.0000 
     41 N           8.6990   -3.1415   21.8400 N.am      9 SEC1        0.0000 
     42 N           9.4525   -1.5660   21.8950 N.am      9 SEC1        0.0000 
     43 N           7.8000   -3.3510   17.5480 N.am      9 SEC1        0.0000 
     44 N          -2.2746    3.6734   25.1605 N.am      9 SEC1        0.0000 
     45 NZ         10.8965   -0.0490   21.2740 N.4      10 LYC3        0.0000 
     46 NZ          8.5725   -3.7690   21.6545 N.4      10 LYC3        0.0000 
     47 NZ          9.8630   -1.0530   21.9810 N.4      10 LYC3        0.0000 
     48 NZ          9.5335   -6.9480   22.0060 N.4      10 LYC3        0.0000 
     49 CA         13.8745   -5.1065   18.0345 C.3      11 GLC5        0.0000 
     50 CA         10.6835   -6.0475   22.4845 C.3      11 GLC5        0.0000 
     51 CA         14.2150   -6.2890   19.7320 C.3      11 GLC5        0.0000 
     52 CA          5.8855    3.1955   20.3105 C.3      11 GLC5        0.0000 
     53 CA          1.1145    2.1170   27.2425 C.3      11 GLC5        0.0000 
     54 CA          2.3710    4.8980   26.5750 C.3      11 GLC5        0.0000 
     55 CA          3.4810    1.8455   27.9255 C.3      11 GLC5        0.0000 
     56 CZ         15.3020   -4.1814   23.4854 C.ar     12 PHC6        0.0000 
@<TRIPOS>BOND
@<TRIPOS>SUBSTRUCTURE
     1 SEL1        1 GROUP        1 Z    SEL  0     ROOT SEL Z 0
     2 LYL3        8 GROUP        1 Z    LYL  0     **** LYL Z 2
     3 GLL5       11 GROUP        1 Z    GLL  0     **** GLL Z 4
     4 PHL6       17 GROUP        1 Z    PHL  0     **** PHL Z 6
     5 SEP1       18 GROUP        1 Z    SEP  0     **** SEP Z 7
     6 LYP3       26 GROUP        1 Z    LYP  0     **** LYP Z 9
     7 GLP5       28 GROUP        1 Z    GLP  0     **** GLP Z 11
     8 PHP6       35 GROUP        1 Z    PHP  0     **** PHP Z 13
     9 SEC1       36 GROUP        1 Z    SEC  0     **** SEC Z 14
    10 LYC3       45 GROUP        1 Z    LYC  0     **** LYC Z 16
    11 GLC5       49 GROUP        1 Z    GLC  0     **** GLC Z 18
    12 PHC6       56 GROUP        1 Z    PHC  0     **** PHC Z 20
@<TRIPOS>SET

