@<TRIPOS>MOLECULE
2gq2_NAP_3_ligand
   73    77     1     0     0
SMALL
NO_CHARGES


@<TRIPOS>ATOM
     1 PA          10.4340    -1.0830    18.4840 P.3          1 NAP300   0.0000
     2 O1A         10.5230    -0.6040    17.0830 O.co2        1 NAP300   0.0000
     3 O2A         10.6080    -0.0460    19.5080 O.co2        1 NAP300  -1.0000
     4 O5B         11.6350    -2.1350    18.7180 O.3          1 NAP300   0.0000
     5 C5B         11.7650    -3.2170    17.8260 C.3          1 NAP300   0.0000
     6 C4B         12.0300    -4.5070    18.5870 C.3          1 NAP300   0.0000
     7 O4B         13.2020    -4.3880    19.3870 O.3          1 NAP300   0.0000
     8 C3B         10.9080    -4.8150    19.5810 C.3          1 NAP300   0.0000
     9 O3B          9.7920    -5.4250    18.9830 O.3          1 NAP300   0.0000
    10 C2B         11.6100    -5.7180    20.5790 C.3          1 NAP300   0.0000
    11 O2B         11.8830    -6.9670    19.9940 O.3          1 NAP300   0.0000
    12 C1B         12.9620    -5.0210    20.6400 C.3          1 NAP300   0.0000
    13 N9A         13.1660    -4.0500    21.7410 N.pl3        1 NAP300   0.0000
    14 C8A         13.2770    -2.6910    21.6190 C.2          1 NAP300   0.0000
    15 N7A         13.5340    -2.1580    22.8320 N.2          1 NAP300   0.0000
    16 C5A         13.5850    -3.1590    23.7440 C.ar         1 NAP300   0.0000
    17 C6A         13.8110    -3.1800    25.1150 C.ar         1 NAP300   0.0000
    18 N6A         14.0280    -2.0620    25.8020 N.pl3        1 NAP300   0.0000
    19 N1A         13.8320    -4.3840    25.7830 N.ar         1 NAP300   0.0000
    20 C2A         13.6130    -5.5630    25.1100 C.ar         1 NAP300   0.0000
    21 N3A         13.3850    -5.5490    23.7320 N.ar         1 NAP300   0.0000
    22 C4A         13.3710    -4.3580    23.0650 C.ar         1 NAP300   0.0000
    23 O3           9.1210    -1.9960    18.5000 O.3          1 NAP300   0.0000
    24 PN           7.9430    -1.9770    19.5790 P.3          1 NAP300   0.0000
    25 O1N          8.5410    -2.0540    20.9220 O.co2        1 NAP300   0.0000
    26 O2N          6.9960    -2.9770    19.0530 O.co2        1 NAP300  -1.0000
    27 O5D          7.2450    -0.5090    19.3970 O.3          1 NAP300   0.0000
    28 C5D          7.1220     0.4270    20.4630 C.3          1 NAP300   0.0000
    29 C4D          5.6530     0.4240    20.8850 C.3          1 NAP300   0.0000
    30 O4D          5.3380     0.6760    22.2610 O.3          1 NAP300   0.0000
    31 C3D          4.8470     1.4280    20.0780 C.3          1 NAP300   0.0000
    32 O3D          4.3430     0.8290    18.9100 O.3          1 NAP300   0.0000
    33 C2D          3.6620     1.7080    20.9620 C.3          1 NAP300   0.0000
    34 O2D          2.5200     1.1980    20.3050 O.3          1 NAP300   0.0000
    35 C1D          3.9320     0.9280    22.2470 C.3          1 NAP300   0.0000
    36 N1N          3.3410     1.6120    23.4360 N.ar         1 NAP300   1.0000
    37 C2N          2.2180     2.4060    23.3130 C.ar         1 NAP300   0.0000
    38 C3N          1.6480     3.0330    24.4220 C.ar         1 NAP300   0.0000
    39 C7N          0.4310     3.8970    24.2810 C.2          1 NAP300   0.0000
    40 O7N         -0.7452     3.5777    24.9979 O.2          1 NAP300   0.0000
    41 N7N          0.5072     4.9525    23.4653 N.am         1 NAP300   0.0000
    42 C4N          2.2080     2.8590    25.6720 C.ar         1 NAP300   0.0000
    43 C5N          3.3210     2.0520    25.7890 C.ar         1 NAP300   0.0000
    44 C6N          3.8780     1.4240    24.6760 C.ar         1 NAP300   0.0000
    45 P2B         11.4300    -8.4590    20.4680 P.3          1 NAP300   0.0000
    46 O1X         10.4630    -8.4120    21.6250 O.co2        1 NAP300   0.0000
    47 O2X         10.7940    -9.1790    19.3020 O.co2        1 NAP300  -1.0000
    48 O3X         12.6550    -9.2220    20.8830 O.co2        1 NAP300  -1.0000
    49 H5B1        12.5270    -3.0401    17.2031 H            1 NAP300   0.0000
    50 H5B2        10.9199    -3.3130    17.3000 H            1 NAP300   0.0000
    51 H4B         12.1327    -5.2661    17.9442 H            1 NAP300   0.0000
    52 H3B         10.6238    -3.9712    20.0361 H            1 NAP300   0.0000
    53 H5          10.0695    -6.2891    18.5630 H            1 NAP300   0.0000
    54 H2B         11.1471    -5.7790    21.4633 H            1 NAP300   0.0000
    55 H1B         13.6550    -5.7341    20.7458 H            1 NAP300   0.0000
    56 H8A         13.1827    -2.1756    20.7673 H            1 NAP300   0.0000
    57 H6A1        14.1881    -2.1043    26.7882 H            1 NAP300   0.0000
    58 H6A2        14.0311    -1.1792    25.3323 H            1 NAP300   0.0000
    59 H2A         13.6170    -6.4306    25.6072 H            1 NAP300   0.0000
    60 H5D1         7.3893     1.3393    20.1528 H            1 NAP300   0.0000
    61 H5D2         7.7014     0.1528    21.2306 H            1 NAP300   0.0000
    62 H4D          5.2904    -0.4818    20.6659 H            1 NAP300   0.0000
    63 H3D          5.3707     2.2563    19.8789 H            1 NAP300   0.0000
    64 H16          3.3441     0.8764    18.9155 H            1 NAP300   0.0000
    65 H2D          3.5687     2.6868    21.1445 H            1 NAP300   0.0000
    66 H18          1.8440     0.9130    20.9845 H            1 NAP300   0.0000
    67 H1D          3.4743     0.0434    22.1573 H            1 NAP300   0.0000
    68 H2N          1.8049     2.5343    22.4114 H            1 NAP300   0.0000
    69 H7N1        -0.2867     5.5481    23.3429 H            1 NAP300   0.0000
    70 H7N2         1.3581     5.1469    22.9772 H            1 NAP300   0.0000
    71 H4N          1.8156     3.3079    26.4748 H            1 NAP300   0.0000
    72 H5N          3.7357     1.9151    26.6886 H            1 NAP300   0.0000
    73 H6N          4.6762     0.8320    24.7872 H            1 NAP300   0.0000
@<TRIPOS>BOND
     1    1    2      ar
     2    1    3      ar
     3    1    4       1
     4    1   23       1
     5    4    5       1
     6    5    6       1
     7    6    7       1
     8    6    8       1
     9    7   12       1
    10    8    9       1
    11    8   10       1
    12   10   11       1
    13   10   12       1
    14   11   45       1
    15   12   13       1
    16   13   14       1
    17   13   22       1
    18   14   15       2
    19   15   16       1
    20   16   17      ar
    21   16   22      ar
    22   17   18       1
    23   17   19      ar
    24   19   20      ar
    25   20   21      ar
    26   21   22      ar
    27   23   24       1
    28   24   25      ar
    29   24   26      ar
    30   24   27       1
    31   27   28       1
    32   28   29       1
    33   29   30       1
    34   29   31       1
    35   30   35       1
    36   31   32       1
    37   31   33       1
    38   33   34       1
    39   33   35       1
    40   35   36       1
    41   36   37      ar
    42   36   44      ar
    43   37   38      ar
    44   38   39       1
    45   38   42      ar
    46   39   40       2
    47   39   41      am
    48   42   43      ar
    49   43   44      ar
    50   45   46      ar
    51   45   47      ar
    52   45   48      ar
    53   43   72       1
    54    5   49       1
    55    5   50       1
    56    6   51       1
    57    8   52       1
    58    9   53       1
    59   10   54       1
    60   12   55       1
    61   14   56       1
    62   18   57       1
    63   18   58       1
    64   20   59       1
    65   44   73       1
    66   28   60       1
    67   28   61       1
    68   29   62       1
    69   31   63       1
    70   32   64       1
    71   33   65       1
    72   34   66       1
    73   35   67       1
    74   37   68       1
    75   41   69       1
    76   41   70       1
    77   42   71       1
@<TRIPOS>SUBSTRUCTURE
     1 NAP300      1 GROUP             4 C     NAP     0 **** NAP C 300
