2gq2_NAP_3_ligand
  -OEChem-08111718373D

 73 77  0     1  0  0  0  0  0999 V2000
    3.7357    1.9151   26.6886 H   0  0  0  0  0  0  0  0  0  0  0  0
    1.8156    3.3079   26.4748 H   0  0  0  0  0  0  0  0  0  0  0  0
    4.6762    0.8320   24.7872 H   0  0  0  0  0  0  0  0  0  0  0  0
    1.8049    2.5343   22.4114 H   0  0  0  0  0  0  0  0  0  0  0  0
   13.6170   -6.4306   25.6072 H   0  0  0  0  0  0  0  0  0  0  0  0
   13.1827   -2.1756   20.7673 H   0  0  0  0  0  0  0  0  0  0  0  0
   10.6238   -3.9712   20.0361 H   0  0  0  0  0  0  0  0  0  0  0  0
    5.3707    2.2563   19.8789 H   0  0  0  0  0  0  0  0  0  0  0  0
   11.1471   -5.7790   21.4633 H   0  0  0  0  0  0  0  0  0  0  0  0
    3.5687    2.6868   21.1445 H   0  0  0  0  0  0  0  0  0  0  0  0
   12.1327   -5.2661   17.9442 H   0  0  0  0  0  0  0  0  0  0  0  0
    5.2904   -0.4818   20.6659 H   0  0  0  0  0  0  0  0  0  0  0  0
   13.6550   -5.7341   20.7458 H   0  0  0  0  0  0  0  0  0  0  0  0
    3.4743    0.0434   22.1573 H   0  0  0  0  0  0  0  0  0  0  0  0
   12.5270   -3.0401   17.2031 H   0  0  0  0  0  0  0  0  0  0  0  0
   10.9199   -3.3130   17.3000 H   0  0  0  0  0  0  0  0  0  0  0  0
    7.3893    1.3393   20.1528 H   0  0  0  0  0  0  0  0  0  0  0  0
    7.7014    0.1528   21.2306 H   0  0  0  0  0  0  0  0  0  0  0  0
   14.1881   -2.1043   26.7882 H   0  0  0  0  0  0  0  0  0  0  0  0
   14.0311   -1.1792   25.3323 H   0  0  0  0  0  0  0  0  0  0  0  0
   -0.2867    5.5481   23.3429 H   0  0  0  0  0  0  0  0  0  0  0  0
    1.3581    5.1469   22.9772 H   0  0  0  0  0  0  0  0  0  0  0  0
   10.0695   -6.2891   18.5630 H   0  0  0  0  0  0  0  0  0  0  0  0
    3.3441    0.8764   18.9155 H   0  0  0  0  0  0  0  0  0  0  0  0
    1.8440    0.9130   20.9845 H   0  0  0  0  0  0  0  0  0  0  0  0
    3.3210    2.0520   25.7890 C   0  0  0  0  0  0  0  0  0  0  0  0
    2.2080    2.8590   25.6720 C   0  0  0  0  0  0  0  0  0  0  0  0
    3.8780    1.4240   24.6760 C   0  0  0  0  0  0  0  0  0  0  0  0
    2.2180    2.4060   23.3130 C   0  0  0  0  0  0  0  0  0  0  0  0
   13.6130   -5.5630   25.1100 C   0  0  0  0  0  0  0  0  0  0  0  0
   13.2770   -2.6910   21.6190 C   0  0  0  0  0  0  0  0  0  0  0  0
    1.6480    3.0330   24.4220 C   0  0  0  0  0  0  0  0  0  0  0  0
   13.5850   -3.1590   23.7440 C   0  0  0  0  0  0  0  0  0  0  0  0
   13.3710   -4.3580   23.0650 C   0  0  0  0  0  0  0  0  0  0  0  0
   13.8110   -3.1800   25.1150 C   0  0  0  0  0  0  0  0  0  0  0  0
    0.4310    3.8970   24.2810 C   0  0  0  0  0  0  0  0  0  0  0  0
   10.9080   -4.8150   19.5810 C   0  0  1  0  0  0  0  0  0  0  0  0
    4.8470    1.4280   20.0780 C   0  0  1  0  0  0  0  0  0  0  0  0
   11.6100   -5.7180   20.5790 C   0  0  2  0  0  0  0  0  0  0  0  0
    3.6620    1.7080   20.9620 C   0  0  2  0  0  0  0  0  0  0  0  0
   12.0300   -4.5070   18.5870 C   0  0  1  0  0  0  0  0  0  0  0  0
    5.6530    0.4240   20.8850 C   0  0  1  0  0  0  0  0  0  0  0  0
   12.9620   -5.0210   20.6400 C   0  0  2  0  0  0  0  0  0  0  0  0
    3.9320    0.9280   22.2470 C   0  0  2  0  0  0  0  0  0  0  0  0
   11.7650   -3.2170   17.8260 C   0  0  1  0  0  0  0  0  0  0  0  0
    7.1220    0.4270   20.4630 C   0  0  1  0  0  0  0  0  0  0  0  0
   13.3850   -5.5490   23.7320 N   0  0  0  0  0  0  0  0  0  0  0  0
   13.8320   -4.3840   25.7830 N   0  0  0  0  0  0  0  0  0  0  0  0
   13.5340   -2.1580   22.8320 N   0  0  0  0  0  0  0  0  0  0  0  0
   13.1660   -4.0500   21.7410 N   0  0  0  0  0  0  0  0  0  0  0  0
    3.3410    1.6120   23.4360 N   0  3  0  0  0  0  0  0  0  0  0  0
   14.0280   -2.0620   25.8020 N   0  0  0  0  0  0  0  0  0  0  0  0
    0.5072    4.9525   23.4653 N   0  0  0  0  0  0  0  0  0  0  0  0
   10.7940   -9.1790   19.3020 O   0  5  0  0  0  0  0  0  0  0  0  0
   12.6550   -9.2220   20.8830 O   0  5  0  0  0  0  0  0  0  0  0  0
   10.6080   -0.0460   19.5080 O   0  5  0  0  0  0  0  0  0  0  0  0
    6.9960   -2.9770   19.0530 O   0  5  0  0  0  0  0  0  0  0  0  0
   -0.7452    3.5777   24.9979 O   0  0  0  0  0  0  0  0  0  0  0  0
   10.4630   -8.4120   21.6250 O   0  0  0  0  0  0  0  0  0  0  0  0
   10.5230   -0.6040   17.0830 O   0  0  0  0  0  0  0  0  0  0  0  0
    8.5410   -2.0540   20.9220 O   0  0  0  0  0  0  0  0  0  0  0  0
   13.2020   -4.3880   19.3870 O   0  0  0  0  0  0  0  0  0  0  0  0
    5.3380    0.6760   22.2610 O   0  0  0  0  0  0  0  0  0  0  0  0
    9.7920   -5.4250   18.9830 O   0  0  0  0  0  0  0  0  0  0  0  0
    4.3430    0.8290   18.9100 O   0  0  0  0  0  0  0  0  0  0  0  0
    2.5200    1.1980   20.3050 O   0  0  0  0  0  0  0  0  0  0  0  0
   11.8830   -6.9670   19.9940 O   0  0  0  0  0  0  0  0  0  0  0  0
   11.6350   -2.1350   18.7180 O   0  0  0  0  0  0  0  0  0  0  0  0
    7.2450   -0.5090   19.3970 O   0  0  0  0  0  0  0  0  0  0  0  0
    9.1210   -1.9960   18.5000 O   0  0  0  0  0  0  0  0  0  0  0  0
   11.4300   -8.4590   20.4680 P   0  0  0  0  0  0  0  0  0  0  0  0
   10.4340   -1.0830   18.4840 P   0  0  1  0  0  0  0  0  0  0  0  0
    7.9430   -1.9770   19.5790 P   0  0  2  0  0  0  0  0  0  0  0  0
  1 26  1  0  0  0  0
  2 27  1  0  0  0  0
  3 28  1  0  0  0  0
  4 29  1  0  0  0  0
  5 30  1  0  0  0  0
  6 31  1  0  0  0  0
  7 37  1  0  0  0  0
  8 38  1  0  0  0  0
  9 39  1  0  0  0  0
 10 40  1  0  0  0  0
 11 41  1  0  0  0  0
 12 42  1  0  0  0  0
 13 43  1  0  0  0  0
 14 44  1  0  0  0  0
 15 45  1  0  0  0  0
 16 45  1  0  0  0  0
 17 46  1  0  0  0  0
 18 46  1  0  0  0  0
 19 52  1  0  0  0  0
 20 52  1  0  0  0  0
 21 53  1  0  0  0  0
 22 53  1  0  0  0  0
 23 64  1  0  0  0  0
 24 65  1  0  0  0  0
 25 66  1  0  0  0  0
 26 27  1  0  0  0  0
 26 28  2  0  0  0  0
 27 32  2  0  0  0  0
 28 51  1  0  0  0  0
 29 32  1  0  0  0  0
 29 51  2  0  0  0  0
 30 47  1  0  0  0  0
 30 48  2  0  0  0  0
 31 49  2  0  0  0  0
 31 50  1  0  0  0  0
 32 36  1  0  0  0  0
 33 34  1  0  0  0  0
 33 35  2  0  0  0  0
 33 49  1  0  0  0  0
 34 47  2  0  0  0  0
 34 50  1  0  0  0  0
 35 48  1  0  0  0  0
 35 52  1  0  0  0  0
 36 53  1  0  0  0  0
 36 58  2  0  0  0  0
 37 39  1  0  0  0  0
 37 41  1  0  0  0  0
 37 64  1  0  0  0  0
 38 40  1  0  0  0  0
 38 42  1  0  0  0  0
 38 65  1  0  0  0  0
 39 43  1  0  0  0  0
 39 67  1  0  0  0  0
 40 44  1  0  0  0  0
 40 66  1  0  0  0  0
 41 45  1  0  0  0  0
 41 62  1  0  0  0  0
 42 46  1  0  0  0  0
 42 63  1  0  0  0  0
 43 50  1  0  0  0  0
 43 62  1  0  0  0  0
 44 51  1  0  0  0  0
 44 63  1  0  0  0  0
 45 68  1  0  0  0  0
 46 69  1  0  0  0  0
 54 71  1  0  0  0  0
 55 71  1  0  0  0  0
 56 72  1  0  0  0  0
 57 73  1  0  0  0  0
 59 71  2  0  0  0  0
 60 72  2  0  0  0  0
 61 73  2  0  0  0  0
 67 71  1  0  0  0  0
 68 72  1  0  0  0  0
 69 73  1  0  0  0  0
 70 72  1  0  0  0  0
 70 73  1  0  0  0  0
M  CHG  5  56  -1  57  -1  51   1  54  -1  55  -1
M  END
> <scpdb_id>
2gq2_3

$$$$
