#    Name: 15589
#    Modification time : Tue Aug  8 22:22:50 2017

@<TRIPOS>MOLECULE
15589
   63     0    12     0     0
SMALL
NO_CHARGES


@<TRIPOS>ATOM
      1 N          23.4630  -59.2690   -0.8370 N.am      1 SEL1        0.0000 
      2 N          15.2020  -64.0490    3.3880 N.am      1 SEL1        0.0000 
      3 N          16.3430  -62.2370    2.0180 N.am      1 SEL1        0.0000 
      4 N          13.2900  -65.2390   -0.3710 N.am      1 SEL1        0.0000 
      5 N          15.5910  -66.0960   -0.6900 N.am      1 SEL1        0.0000 
      6 N          14.3890  -66.4570    1.4920 N.am      1 SEL1        0.0000 
      7 O          24.5890  -59.7580    1.2080 O.2       2 ALL2        0.0000 
      8 O          22.7250  -60.9610   -2.2150 O.2       2 ALL2        0.0000 
      9 CA         24.2460  -57.4190    0.5620 C.3       3 GLL5        0.0000 
     10 CA         23.8700  -61.6230   -0.1280 C.3       3 GLL5        0.0000 
     11 CA         20.4840  -65.0640   -1.0900 C.3       3 GLL5        0.0000 
     12 CA         22.2750  -63.5370    2.1860 C.3       3 GLL5        0.0000 
     13 CA         19.5580  -65.0900    1.5560 C.3       3 GLL5        0.0000 
     14 CA         18.2100  -64.6310    1.0800 C.3       3 GLL5        0.0000 
     15 Zn         15.2020  -64.0490    3.3880 Zn        4 ZIL7        0.0000 
     16 Zn         14.3890  -66.4570    1.4920 Zn        4 ZIL7        0.0000 
     17 N          21.3640  -56.9230   -1.3850 N.am      5 SEP1        0.0000 
     18 N          14.7760  -62.2170    5.4270 N.am      5 SEP1        0.0000 
     19 N          15.9620  -60.9740   -0.4270 N.am      5 SEP1        0.0000 
     20 N          16.5410  -60.4010    4.3640 N.am      5 SEP1        0.0000 
     21 N          11.4570  -67.3470    1.3950 N.am      5 SEP1        0.0000 
     22 N          12.2110  -64.2380    1.9420 N.am      5 SEP1        0.0000 
     23 N          13.5780  -66.3030   -3.1660 N.am      5 SEP1        0.0000 
     24 N          14.0020  -62.4000   -1.7980 N.am      5 SEP1        0.0000 
     25 N          16.5680  -64.9040   -2.8390 N.am      5 SEP1        0.0000 
     26 O          26.3080  -59.1110    3.3040 O.2       6 ALP2        0.0000 
     27 O          21.7600  -58.7330   -3.5500 O.2       6 ALP2        0.0000 
     28 CA         20.0970  -58.0010    0.3610 C.3       7 GLP5        0.0000 
     29 CA         27.6740  -58.8900   -0.4030 C.3       7 GLP5        0.0000 
     30 CA         19.7460  -60.7520    0.2550 C.3       7 GLP5        0.0000 
     31 CA         19.4020  -61.8010   -1.1590 C.3       7 GLP5        0.0000 
     32 CA         20.8380  -69.1450    0.5250 C.3       7 GLP5        0.0000 
     33 CA         23.1310  -64.9490    6.1140 C.3       7 GLP5        0.0000 
     34 CA         20.5970  -62.2320    4.9490 C.3       7 GLP5        0.0000 
     35 CA         21.3340  -68.0050    2.6920 C.3       7 GLP5        0.0000 
     36 CA         19.4640  -62.4980    3.9830 C.3       7 GLP5        0.0000 
     37 Zn         13.2340  -65.5060    3.4830 Zn        8 ZIP7        0.0000 
     38 N          22.4135  -58.0960   -1.1110 N.am      9 SEC1        0.0000 
     39 N          14.9890  -63.1330    4.4075 N.am      9 SEC1        0.0000 
     40 N          16.1525  -61.6055    0.7955 N.am      9 SEC1        0.0000 
     41 N          16.4420  -61.3190    3.1910 N.am      9 SEC1        0.0000 
     42 N          12.3735  -66.2930    0.5120 N.am      9 SEC1        0.0000 
     43 N          12.7505  -64.7385    0.7855 N.am      9 SEC1        0.0000 
     44 N          13.4340  -65.7710   -1.7685 N.am      9 SEC1        0.0000 
     45 N          13.6460  -63.8195   -1.0845 N.am      9 SEC1        0.0000 
     46 N          14.5845  -66.1995   -1.9280 N.am      9 SEC1        0.0000 
     47 N          16.0795  -65.5000   -1.7645 N.am      9 SEC1        0.0000 
     48 N          12.9230  -66.9020    1.4435 N.am      9 SEC1        0.0000 
     49 O          25.4485  -59.4345    2.2560 O.2      10 ALC2        0.0000 
     50 O          22.2425  -59.8470   -2.8825 O.2      10 ALC2        0.0000 
     51 CA         22.1715  -57.7100    0.4615 C.3      11 GLC5        0.0000 
     52 CA         25.9600  -58.1545    0.0795 C.3      11 GLC5        0.0000 
     53 CA         21.8080  -61.1875    0.0635 C.3      11 GLC5        0.0000 
     54 CA         19.9430  -63.4325   -1.1245 C.3      11 GLC5        0.0000 
     55 CA         20.6610  -67.1045   -0.2825 C.3      11 GLC5        0.0000 
     56 CA         21.0105  -62.1445    1.2205 C.3      11 GLC5        0.0000 
     57 CA         22.7030  -64.2430    4.1500 C.3      11 GLC5        0.0000 
     58 CA         21.4360  -62.8845    3.5675 C.3      11 GLC5        0.0000 
     59 CA         20.4460  -66.5475    2.1240 C.3      11 GLC5        0.0000 
     60 CA         19.1430  -63.3308    0.0795 C.3      11 GLC5        0.0000 
     61 CA         19.1740  -63.6792    2.6505 C.3      11 GLC5        0.0000 
     62 Zn         14.2180  -64.7775    3.4355 Zn       12 ZIC7        0.0000 
     63 Zn         13.8115  -65.9815    2.4875 Zn       12 ZIC7        0.0000 
@<TRIPOS>BOND
@<TRIPOS>SUBSTRUCTURE
     1 SEL1        1 GROUP        1 Z    SEL  0     ROOT SEL Z 0
     2 ALL2        7 GROUP        1 Z    ALL  0     **** ALL Z 1
     3 GLL5        9 GROUP        1 Z    GLL  0     **** GLL Z 4
     4 ZIL7       15 GROUP        1 Z    ZIL  0     **** ZIL Z 5
     5 SEP1       17 GROUP        1 Z    SEP  0     **** SEP Z 7
     6 ALP2       26 GROUP        1 Z    ALP  0     **** ALP Z 8
     7 GLP5       28 GROUP        1 Z    GLP  0     **** GLP Z 11
     8 ZIP7       37 GROUP        1 Z    ZIP  0     **** ZIP Z 12
     9 SEC1       38 GROUP        1 Z    SEC  0     **** SEC Z 14
    10 ALC2       49 GROUP        1 Z    ALC  0     **** ALC Z 15
    11 GLC5       51 GROUP        1 Z    GLC  0     **** GLC Z 18
    12 ZIC7       62 GROUP        1 Z    ZIC  0     **** ZIC Z 19
@<TRIPOS>SET

