@<TRIPOS>MOLECULE
2iea_TDP_1_ligand
   43    44     1     0     0
SMALL
NO_CHARGES


@<TRIPOS>ATOM
     1 N1'         24.5890   -59.7580     1.2080 N.ar         1 TDP887   1.0000
     2 C2'         24.0780   -58.8720     0.2820 C.ar         1 TDP887   0.0000
     3 C2A         24.2460   -57.4190     0.5620 C.3          1 TDP887   0.0000
     4 N3'         23.4630   -59.2690    -0.8370 N.ar         1 TDP887   0.0000
     5 C4'         23.3320   -60.6360    -1.0910 C.ar         1 TDP887   0.0000
     6 N4'         22.7250   -60.9610    -2.2150 N.pl3        1 TDP887   0.0000
     7 C5'         23.8700   -61.6230    -0.1280 C.ar         1 TDP887   0.0000
     8 C6'         24.4790   -61.1190     0.9980 C.ar         1 TDP887   0.0000
     9 C35         23.8770   -63.1270    -0.3550 C.3          1 TDP887   0.0000
    10 N3          22.5090   -63.7900    -0.3360 N.2          1 TDP887   1.0000
    11 C2          21.9280   -64.2880    -1.4210 C.2          1 TDP887   0.0000
    12 S1          20.4840   -65.0640    -1.0900 S.3          1 TDP887   0.0000
    13 C5          20.6290   -64.7120     0.5930 C.2          1 TDP887   0.0000
    14 C4          21.7790   -64.0180     0.8510 C.2          1 TDP887   0.0000
    15 C4A         22.2750   -63.5370     2.1860 C.3          1 TDP887   0.0000
    16 C5A         19.5580   -65.0900     1.5560 C.3          1 TDP887   0.0000
    17 C5B         18.2100   -64.6310     1.0800 C.3          1 TDP887   0.0000
    18 O5G         17.3390   -64.5440     2.2290 O.3          1 TDP887   0.0000
    19 P1          15.9890   -63.6740     2.2020 P.3          1 TDP887   0.0000
    20 O11         15.2260   -64.1810     0.8720 O.3          1 TDP887   0.0000
    21 O12         15.2020   -64.0490     3.3880 O.co2        1 TDP887   0.0000
    22 O13         16.3430   -62.2370     2.0180 O.co2        1 TDP887  -1.0000
    23 P2          14.6440   -65.5850     0.3260 P.3          1 TDP887   0.0000
    24 O21         13.2900   -65.2390    -0.3710 O.co2        1 TDP887   0.0000
    25 O22         15.5910   -66.0960    -0.6900 O.co2        1 TDP887  -1.0000
    26 O23         14.3890   -66.4570     1.4920 O.co2        1 TDP887  -1.0000
    27 H2A1        23.8358   -56.8872    -0.1789 H            1 TDP887   0.0000
    28 H2A2        23.7949   -57.1915     1.4250 H            1 TDP887   0.0000
    29 H2A3        25.2201   -57.2027     0.6279 H            1 TDP887   0.0000
    30 H4'1        22.5995   -61.9236    -2.4553 H            1 TDP887   0.0000
    31 H4'2        22.3900   -60.2450    -2.8275 H            1 TDP887   0.0000
    32 H6'         24.8497   -61.7510     1.6786 H            1 TDP887   0.0000
    33 H7          24.4339   -63.5457     0.3623 H            1 TDP887   0.0000
    34 H8          24.2941   -63.3035    -1.2465 H            1 TDP887   0.0000
    35 H9          22.3136   -64.2075    -2.3402 H            1 TDP887   0.0000
    36 H4A1        21.6210   -63.7949     2.8972 H            1 TDP887   0.0000
    37 H4A2        23.1624   -63.9543     2.3820 H            1 TDP887   0.0000
    38 H4A3        22.3715   -62.5419     2.1669 H            1 TDP887   0.0000
    39 H5A1        19.7521   -64.6676     2.4414 H            1 TDP887   0.0000
    40 H5A2        19.5466   -66.0849     1.6566 H            1 TDP887   0.0000
    41 H5B1        17.8403   -65.2874     0.4224 H            1 TDP887   0.0000
    42 H5B2        18.2904   -63.7337     0.6460 H            1 TDP887   0.0000
    43 H1'         25.0395   -59.4146     2.0321 H            1 TDP887   0.0000
@<TRIPOS>BOND
     1    1    2      ar
     2    1    8      ar
     3    2    3       1
     4    2    4      ar
     5    4    5      ar
     6    5    6       1
     7    5    7      ar
     8    7    8      ar
     9    7    9       1
    10    9   10       1
    11   10   11       2
    12   10   14       1
    13   11   12       1
    14   12   13       1
    15   13   14       2
    16   13   16       1
    17   14   15       1
    18   16   17       1
    19   17   18       1
    20   18   19       1
    21   19   20       1
    22   19   21      ar
    23   19   22      ar
    24   20   23       1
    25   23   24      ar
    26   23   25      ar
    27   23   26      ar
    28    3   27       1
    29    3   28       1
    30    3   29       1
    31    6   30       1
    32    6   31       1
    33    8   32       1
    34    9   33       1
    35    9   34       1
    36   11   35       1
    37   15   36       1
    38   15   37       1
    39   15   38       1
    40   16   39       1
    41   16   40       1
    42   17   41       1
    43   17   42       1
    44    1   43       1
@<TRIPOS>SUBSTRUCTURE
     1 TDP887      1 GROUP             4 A     TDP     0 **** TDP A 887
