2iea_TDP_1_ligand
  -OEChem-08111718373D

 42 43  0     1  0  0  0  0  0999 V2000
   24.8497  -61.7510    1.6786 H   0  0  0  0  0  0  0  0  0  0  0  0
   22.3136  -64.2075   -2.3402 H   0  0  0  0  0  0  0  0  0  0  0  0
   21.6210  -63.7949    2.8972 H   0  0  0  0  0  0  0  0  0  0  0  0
   23.1624  -63.9543    2.3820 H   0  0  0  0  0  0  0  0  0  0  0  0
   22.3715  -62.5419    2.1669 H   0  0  0  0  0  0  0  0  0  0  0  0
   23.8358  -56.8872   -0.1789 H   0  0  0  0  0  0  0  0  0  0  0  0
   23.7949  -57.1915    1.4250 H   0  0  0  0  0  0  0  0  0  0  0  0
   25.2201  -57.2027    0.6279 H   0  0  0  0  0  0  0  0  0  0  0  0
   24.4339  -63.5457    0.3623 H   0  0  0  0  0  0  0  0  0  0  0  0
   24.2941  -63.3035   -1.2465 H   0  0  0  0  0  0  0  0  0  0  0  0
   19.7521  -64.6676    2.4414 H   0  0  0  0  0  0  0  0  0  0  0  0
   19.5466  -66.0849    1.6566 H   0  0  0  0  0  0  0  0  0  0  0  0
   17.8403  -65.2874    0.4224 H   0  0  0  0  0  0  0  0  0  0  0  0
   18.2904  -63.7337    0.6460 H   0  0  0  0  0  0  0  0  0  0  0  0
   22.5995  -61.9236   -2.4553 H   0  0  0  0  0  0  0  0  0  0  0  0
   22.3900  -60.2450   -2.8275 H   0  0  0  0  0  0  0  0  0  0  0  0
   24.4790  -61.1190    0.9980 C   0  0  0  0  0  0  0  0  0  0  0  0
   21.9280  -64.2880   -1.4210 C   0  0  0  0  0  0  0  0  0  0  0  0
   23.8700  -61.6230   -0.1280 C   0  0  0  0  0  0  0  0  0  0  0  0
   21.7790  -64.0180    0.8510 C   0  0  0  0  0  0  0  0  0  0  0  0
   20.6290  -64.7120    0.5930 C   0  0  0  0  0  0  0  0  0  0  0  0
   23.3320  -60.6360   -1.0910 C   0  0  0  0  0  0  0  0  0  0  0  0
   24.0780  -58.8720    0.2820 C   0  0  0  0  0  0  0  0  0  0  0  0
   22.2750  -63.5370    2.1860 C   0  0  0  0  0  0  0  0  0  0  0  0
   24.2460  -57.4190    0.5620 C   0  0  0  0  0  0  0  0  0  0  0  0
   23.8770  -63.1270   -0.3550 C   0  0  2  0  0  0  0  0  0  0  0  0
   19.5580  -65.0900    1.5560 C   0  0  2  0  0  0  0  0  0  0  0  0
   18.2100  -64.6310    1.0800 C   0  0  2  0  0  0  0  0  0  0  0  0
   23.4630  -59.2690   -0.8370 N   0  0  0  0  0  0  0  0  0  0  0  0
   24.5890  -59.7580    1.2080 N   0  0  0  0  0  0  0  0  0  0  0  0
   22.5090  -63.7900   -0.3360 N   0  3  0  0  0  0  0  0  0  0  0  0
   22.7250  -60.9610   -2.2150 N   0  0  0  0  0  0  0  0  0  0  0  0
   15.5910  -66.0960   -0.6900 O   0  5  0  0  0  0  0  0  0  0  0  0
   14.3890  -66.4570    1.4920 O   0  5  0  0  0  0  0  0  0  0  0  0
   16.3430  -62.2370    2.0180 O   0  5  0  0  0  0  0  0  0  0  0  0
   13.2900  -65.2390   -0.3710 O   0  0  0  0  0  0  0  0  0  0  0  0
   15.2020  -64.0490    3.3880 O   0  0  0  0  0  0  0  0  0  0  0  0
   17.3390  -64.5440    2.2290 O   0  0  0  0  0  0  0  0  0  0  0  0
   15.2260  -64.1810    0.8720 O   0  0  0  0  0  0  0  0  0  0  0  0
   14.6440  -65.5850    0.3260 P   0  0  0  0  0  0  0  0  0  0  0  0
   15.9890  -63.6740    2.2020 P   0  0  2  0  0  0  0  0  0  0  0  0
   20.4840  -65.0640   -1.0900 S   0  0  0  0  0  0  0  0  0  0  0  0
  1 17  1  0  0  0  0
  2 18  1  0  0  0  0
  3 24  1  0  0  0  0
  4 24  1  0  0  0  0
  5 24  1  0  0  0  0
  6 25  1  0  0  0  0
  7 25  1  0  0  0  0
  8 25  1  0  0  0  0
  9 26  1  0  0  0  0
 10 26  1  0  0  0  0
 11 27  1  0  0  0  0
 12 27  1  0  0  0  0
 13 28  1  0  0  0  0
 14 28  1  0  0  0  0
 15 32  1  0  0  0  0
 16 32  1  0  0  0  0
 17 19  2  0  0  0  0
 17 30  1  0  0  0  0
 18 31  2  0  0  0  0
 18 42  1  0  0  0  0
 19 22  1  0  0  0  0
 19 26  1  0  0  0  0
 20 21  2  0  0  0  0
 20 24  1  0  0  0  0
 20 31  1  0  0  0  0
 21 27  1  0  0  0  0
 21 42  1  0  0  0  0
 22 29  2  0  0  0  0
 22 32  1  0  0  0  0
 23 25  1  0  0  0  0
 23 29  1  0  0  0  0
 23 30  2  0  0  0  0
 26 31  1  0  0  0  0
 27 28  1  0  0  0  0
 28 38  1  0  0  0  0
 33 40  1  0  0  0  0
 34 40  1  0  0  0  0
 35 41  1  0  0  0  0
 36 40  2  0  0  0  0
 37 41  2  0  0  0  0
 38 41  1  0  0  0  0
 39 40  1  0  0  0  0
 39 41  1  0  0  0  0
M  CHG  4  31   1  35  -1  33  -1  34  -1
M  END
> <scpdb_id>
2iea_1

$$$$
