#    Name: 8894
#    Modification time : Wed Aug  9 00:17:02 2017

@<TRIPOS>MOLECULE
8894
   31     0     6     0     0
SMALL
NO_CHARGES


@<TRIPOS>ATOM
      1 N           8.9620    2.5460   51.1390 N.am      1 SEL1        0.0000 
      2 CA          9.1120    0.1970   50.4070 C.3       2 GLL5        0.0000 
      3 CA         12.1910    0.3790   51.0150 C.3       2 GLL5        0.0000 
      4 CA         12.6080    0.3450   48.5240 C.3       2 GLL5        0.0000 
      5 CA         11.4820    3.1980   49.7120 C.3       2 GLL5        0.0000 
      6 CA          9.7060    0.3630   47.8660 C.3       2 GLL5        0.0000 
      7 CA         10.0070    1.9250   47.9840 C.3       2 GLL5        0.0000 
      8 N           6.9000    2.1550   52.6200 N.am      3 SEP1        0.0000 
      9 CA          6.8290   -1.0380   53.4980 C.3       4 GLP5        0.0000 
     10 CA          5.9710    1.4640   48.8660 C.3       4 GLP5        0.0000 
     11 CA         15.6180   -0.9120   50.8070 C.3       4 GLP5        0.0000 
     12 CA         14.4890    3.6100   52.6070 C.3       4 GLP5        0.0000 
     13 CA         12.9070    1.2300   44.5810 C.3       4 GLP5        0.0000 
     14 CA         15.5200    3.3370   48.5210 C.3       4 GLP5        0.0000 
     15 CA         10.9620    4.3280   53.4350 C.3       4 GLP5        0.0000 
     16 CA         13.6690    6.6720   49.3690 C.3       4 GLP5        0.0000 
     17 CA          9.6680    5.5720   47.4000 C.3       4 GLP5        0.0000 
     18 N           7.9310    2.3505   51.8795 N.am      5 SEC1        0.0000 
     19 CA          7.9705   -0.4205   51.9525 C.3       6 GLC5        0.0000 
     20 CA          7.5415    0.8305   49.6365 C.3       6 GLC5        0.0000 
     21 CA         13.9045   -0.2665   50.9110 C.3       6 GLC5        0.0000 
     22 CA         13.3400    1.9945   51.8110 C.3       6 GLC5        0.0000 
     23 CA         12.7575    0.7875   46.5525 C.3       6 GLC5        0.0000 
     24 CA         14.1130   -0.2835   49.6655 C.3       6 GLC5        0.0000 
     25 CA         14.0640    1.8410   48.5225 C.3       6 GLC5        0.0000 
     26 CA         11.2220    3.7630   51.5735 C.3       6 GLC5        0.0000 
     27 CA         12.5755    4.9350   49.5405 C.3       6 GLC5        0.0000 
     28 CA         12.9855    3.4040   51.1595 C.3       6 GLC5        0.0000 
     29 CA         13.5010    3.2675   49.1165 C.3       6 GLC5        0.0000 
     30 CA          7.9138    1.3040   48.3955 C.3       6 GLC5        0.0000 
     31 CA         10.1856    3.9061   48.2765 C.3       6 GLC5        0.0000 
@<TRIPOS>BOND
@<TRIPOS>SUBSTRUCTURE
     1 SEL1        1 GROUP        1 Z    SEL  0     ROOT SEL Z 0
     2 GLL5        2 GROUP        1 Z    GLL  0     **** GLL Z 4
     3 SEP1        8 GROUP        1 Z    SEP  0     **** SEP Z 7
     4 GLP5        9 GROUP        1 Z    GLP  0     **** GLP Z 11
     5 SEC1       18 GROUP        1 Z    SEC  0     **** SEC Z 14
     6 GLC5       19 GROUP        1 Z    GLC  0     **** GLC Z 18
@<TRIPOS>SET

