@<TRIPOS>MOLECULE
1t88_CAM_1_ligand
   27    28     1     0     0
SMALL
NO_CHARGES


@<TRIPOS>ATOM
     1 C1          10.6620     1.9190    49.4580 C.3          1 CAM1422   0.0000
     2 C2           9.4880     1.6810    50.4490 C.2          1 CAM1422   0.0000
     3 O            8.9620     2.5460    51.1390 O.2          1 CAM1422   0.0000
     4 C3           9.1120     0.1970    50.4070 C.3          1 CAM1422   0.0000
     5 C4          10.2300    -0.1680    49.3090 C.3          1 CAM1422   0.0000
     6 C5           9.7060     0.3630    47.8660 C.3          1 CAM1422   0.0000
     7 C6          10.0070     1.9250    47.9840 C.3          1 CAM1422   0.0000
     8 C7          11.4850     0.6340    49.5930 C.3          1 CAM1422   0.0000
     9 C8          12.1910     0.3790    51.0150 C.3          1 CAM1422   0.0000
    10 C9          12.6080     0.3450    48.5240 C.3          1 CAM1422   0.0000
    11 C10         11.4820     3.1980    49.7120 C.3          1 CAM1422   0.0000
    12 H1           8.1783     0.0359    50.0874 H            1 CAM1422   0.0000
    13 H2           9.2504    -0.2695    51.2806 H            1 CAM1422   0.0000
    14 H3          10.4190    -1.1498    49.2913 H            1 CAM1422   0.0000
    15 H4           8.7295     0.1861    47.7428 H            1 CAM1422   0.0000
    16 H5          10.2176    -0.0532    47.1143 H            1 CAM1422   0.0000
    17 H6          10.6495     2.2404    47.2856 H            1 CAM1422   0.0000
    18 H7           9.1731     2.4753    47.9427 H            1 CAM1422   0.0000
    19 H8          12.6968    -0.4832    50.9862 H            1 CAM1422   0.0000
    20 H9          12.8219     1.1291    51.2132 H            1 CAM1422   0.0000
    21 H10         11.4934     0.3325    51.7299 H            1 CAM1422   0.0000
    22 H11         13.0576    -0.5220    48.7389 H            1 CAM1422   0.0000
    23 H12         12.1962     0.2904    47.6144 H            1 CAM1422   0.0000
    24 H13         13.2822     1.0833    48.5409 H            1 CAM1422   0.0000
    25 H14         12.2106     3.2677    49.0306 H            1 CAM1422   0.0000
    26 H15         10.8840     3.9965    49.6433 H            1 CAM1422   0.0000
    27 H16         11.8838     3.1602    50.6269 H            1 CAM1422   0.0000
@<TRIPOS>BOND
     1    1    2       1
     2    1    7       1
     3    1    8       1
     4    1   11       1
     5    2    3       2
     6    2    4       1
     7    4    5       1
     8    5    6       1
     9    5    8       1
    10    6    7       1
    11    8    9       1
    12    8   10       1
    13    4   12       1
    14    4   13       1
    15    5   14       1
    16    6   15       1
    17    6   16       1
    18    7   17       1
    19    7   18       1
    20    9   19       1
    21    9   20       1
    22    9   21       1
    23   10   22       1
    24   10   23       1
    25   10   24       1
    26   11   25       1
    27   11   26       1
    28   11   27       1
@<TRIPOS>SUBSTRUCTURE
     1 CAM1422     1 GROUP             4 A     CAM     0 **** CAM A1422
