1t88_CAM_1_ligand
  -OEChem-08111718373D

 27 28  0     1  0  0  0  0  0999 V2000
    8.1783    0.0359   50.0874 H   0  0  0  0  0  0  0  0  0  0  0  0
    9.2504   -0.2695   51.2806 H   0  0  0  0  0  0  0  0  0  0  0  0
    8.7295    0.1861   47.7428 H   0  0  0  0  0  0  0  0  0  0  0  0
   10.2176   -0.0532   47.1143 H   0  0  0  0  0  0  0  0  0  0  0  0
   10.6495    2.2404   47.2856 H   0  0  0  0  0  0  0  0  0  0  0  0
    9.1731    2.4753   47.9427 H   0  0  0  0  0  0  0  0  0  0  0  0
   10.4190   -1.1498   49.2913 H   0  0  0  0  0  0  0  0  0  0  0  0
   12.2106    3.2677   49.0306 H   0  0  0  0  0  0  0  0  0  0  0  0
   10.8840    3.9965   49.6433 H   0  0  0  0  0  0  0  0  0  0  0  0
   11.8838    3.1602   50.6269 H   0  0  0  0  0  0  0  0  0  0  0  0
   12.6968   -0.4832   50.9862 H   0  0  0  0  0  0  0  0  0  0  0  0
   12.8219    1.1291   51.2132 H   0  0  0  0  0  0  0  0  0  0  0  0
   11.4934    0.3325   51.7299 H   0  0  0  0  0  0  0  0  0  0  0  0
   13.0576   -0.5220   48.7389 H   0  0  0  0  0  0  0  0  0  0  0  0
   12.1962    0.2904   47.6144 H   0  0  0  0  0  0  0  0  0  0  0  0
   13.2822    1.0833   48.5409 H   0  0  0  0  0  0  0  0  0  0  0  0
    9.4880    1.6810   50.4490 C   0  0  0  0  0  0  0  0  0  0  0  0
    9.1120    0.1970   50.4070 C   0  0  2  0  0  0  0  0  0  0  0  0
    9.7060    0.3630   47.8660 C   0  0  1  0  0  0  0  0  0  0  0  0
   10.0070    1.9250   47.9840 C   0  0  1  0  0  0  0  0  0  0  0  0
   10.2300   -0.1680   49.3090 C   0  0  1  0  0  0  0  0  0  0  0  0
   10.6620    1.9190   49.4580 C   0  0  2  0  0  0  0  0  0  0  0  0
   11.4850    0.6340   49.5930 C   0  0  1  0  0  0  0  0  0  0  0  0
   11.4820    3.1980   49.7120 C   0  0  0  0  0  0  0  0  0  0  0  0
   12.1910    0.3790   51.0150 C   0  0  0  0  0  0  0  0  0  0  0  0
   12.6080    0.3450   48.5240 C   0  0  0  0  0  0  0  0  0  0  0  0
    8.9620    2.5460   51.1390 O   0  0  0  0  0  0  0  0  0  0  0  0
  1 18  1  0  0  0  0
  2 18  1  0  0  0  0
  3 19  1  0  0  0  0
  4 19  1  0  0  0  0
  5 20  1  0  0  0  0
  6 20  1  0  0  0  0
  7 21  1  0  0  0  0
  8 24  1  0  0  0  0
  9 24  1  0  0  0  0
 10 24  1  0  0  0  0
 11 25  1  0  0  0  0
 12 25  1  0  0  0  0
 13 25  1  0  0  0  0
 14 26  1  0  0  0  0
 15 26  1  0  0  0  0
 16 26  1  0  0  0  0
 17 18  1  0  0  0  0
 17 22  1  0  0  0  0
 17 27  2  0  0  0  0
 18 21  1  0  0  0  0
 19 20  1  0  0  0  0
 19 21  1  0  0  0  0
 20 22  1  0  0  0  0
 21 23  1  0  0  0  0
 22 23  1  0  0  0  0
 22 24  1  0  0  0  0
 23 25  1  0  0  0  0
 23 26  1  0  0  0  0
M  END
> <scpdb_id>
1t88_1

$$$$
