#    Name: 19586
#    Modification time : Tue Aug  8 21:53:44 2017

@<TRIPOS>MOLECULE
19586
   33     0    15     0     0
SMALL
NO_CHARGES


@<TRIPOS>ATOM
      1 N          30.3500   -3.9440  -65.4800 N.am      1 SEL1        0.0000 
      2 N          24.5750   -2.2500  -62.1030 N.am      1 SEL1        0.0000 
      3 O          35.2870   -3.2540  -60.0110 O.2       2 ALL2        0.0000 
      4 O          35.8340   -1.1290  -60.9730 O.2       2 ALL2        0.0000 
      5 NZ         30.3500   -3.9440  -65.4800 N.4       3 LYL3        0.0000 
      6 NZ         28.2780   -5.4730  -65.9730 N.4       3 LYL3        0.0000 
      7 CA         31.5560   -5.8900  -59.2780 C.3       4 GLL5        0.0000 
      8 CA         28.5540   -0.5390  -61.6330 C.3       4 GLL5        0.0000 
      9 CZ         31.9084   -3.5398  -60.3894 C.ar      5 PHL6        0.0000 
     10 N          29.6340   -3.9530  -68.3460 N.am      6 SEP1        0.0000 
     11 N          33.0020   -4.8950  -63.4530 N.am      6 SEP1        0.0000 
     12 N          22.4275   -3.0189  -59.5829 N.am      6 SEP1        0.0000 
     13 O          38.4740   -2.4100  -60.6140 O.2       7 ALP2        0.0000 
     14 O          38.1240   -4.0470  -59.1500 O.2       7 ALP2        0.0000 
     15 NZ         29.4720   -5.1540  -68.8950 N.4       8 LYP3        0.0000 
     16 CA         31.4140   -2.8010  -57.1120 C.3       9 GLP5        0.0000 
     17 CA         31.1910  -10.1030  -58.3710 C.3       9 GLP5        0.0000 
     18 CA         28.0950   -8.0030  -58.1640 C.3       9 GLP5        0.0000 
     19 CA         30.0390    1.4740  -59.2980 C.3       9 GLP5        0.0000 
     20 CZ         34.0670   -5.0610  -63.0352 C.ar     10 PHP6        0.0000 
     21 N          29.9920   -3.9485  -66.9130 N.am     11 SEC1        0.0000 
     22 N          31.6760   -4.4195  -64.4665 N.am     11 SEC1        0.0000 
     23 N          23.5012   -2.6345  -60.8430 N.am     11 SEC1        0.0000 
     24 O          36.8805   -2.8320  -60.3125 O.2      12 ALC2        0.0000 
     25 O          36.7055   -3.6505  -59.5805 O.2      12 ALC2        0.0000 
     26 O          37.1540   -1.7695  -60.7935 O.2      12 ALC2        0.0000 
     27 NZ         29.9110   -4.5490  -67.1875 N.4      13 LYC3        0.0000 
     28 NZ         28.8750   -5.3135  -67.4340 N.4      13 LYC3        0.0000 
     29 CA         31.4850   -4.3455  -58.1950 C.3      14 GLC5        0.0000 
     30 CA         31.3735   -7.9965  -58.8245 C.3      14 GLC5        0.0000 
     31 CA         29.8255   -6.9465  -58.7210 C.3      14 GLC5        0.0000 
     32 CA         28.9375    0.3535  -60.3928 C.3      14 GLC5        0.0000 
     33 CZ         32.9877   -4.3004  -61.7123 C.ar     15 PHC6        0.0000 
@<TRIPOS>BOND
@<TRIPOS>SUBSTRUCTURE
     1 SEL1        1 GROUP        1 Z    SEL  0     ROOT SEL Z 0
     2 ALL2        3 GROUP        1 Z    ALL  0     **** ALL Z 1
     3 LYL3        5 GROUP        1 Z    LYL  0     **** LYL Z 2
     4 GLL5        7 GROUP        1 Z    GLL  0     **** GLL Z 4
     5 PHL6        9 GROUP        1 Z    PHL  0     **** PHL Z 6
     6 SEP1       10 GROUP        1 Z    SEP  0     **** SEP Z 7
     7 ALP2       13 GROUP        1 Z    ALP  0     **** ALP Z 8
     8 LYP3       15 GROUP        1 Z    LYP  0     **** LYP Z 9
     9 GLP5       16 GROUP        1 Z    GLP  0     **** GLP Z 11
    10 PHP6       20 GROUP        1 Z    PHP  0     **** PHP Z 13
    11 SEC1       21 GROUP        1 Z    SEC  0     **** SEC Z 14
    12 ALC2       24 GROUP        1 Z    ALC  0     **** ALC Z 15
    13 LYC3       27 GROUP        1 Z    LYC  0     **** LYC Z 16
    14 GLC5       29 GROUP        1 Z    GLC  0     **** GLC Z 18
    15 PHC6       33 GROUP        1 Z    PHC  0     **** PHC Z 20
@<TRIPOS>SET

