2vqz_MGT_5_ligand
  -OEChem-08111718373D

 48 50  0     1  0  0  0  0  0999 V2000
   29.8013   -4.0398  -60.4479 H   0  0  0  0  0  0  0  0  0  0  0  0
   28.2826   -1.1005  -63.6563 H   0  0  0  0  0  0  0  0  0  0  0  0
   29.9272   -2.6180  -63.2460 H   0  0  0  0  0  0  0  0  0  0  0  0
   28.6801    0.4098  -61.3435 H   0  0  0  0  0  0  0  0  0  0  0  0
   31.1410   -0.7235  -61.4266 H   0  0  0  0  0  0  0  0  0  0  0  0
   32.4317   -6.2591  -58.9668 H   0  0  0  0  0  0  0  0  0  0  0  0
   30.9387   -5.7932  -58.4972 H   0  0  0  0  0  0  0  0  0  0  0  0
   31.1511   -6.5123  -59.9479 H   0  0  0  0  0  0  0  0  0  0  0  0
   26.8261   -0.6101  -60.4664 H   0  0  0  0  0  0  0  0  0  0  0  0
   26.5178   -0.6619  -62.0692 H   0  0  0  0  0  0  0  0  0  0  0  0
   36.2444   -3.4276  -59.7803 H   0  0  0  0  0  0  0  0  0  0  0  0
   35.5552   -0.2873  -61.4354 H   0  0  0  0  0  0  0  0  0  0  0  0
   36.7955   -1.2775  -60.7417 H   0  0  0  0  0  0  0  0  0  0  0  0
   30.4219    0.4708  -63.9148 H   0  0  0  0  0  0  0  0  0  0  0  0
   31.4756   -1.9334  -64.5595 H   0  0  0  0  0  0  0  0  0  0  0  0
   30.7740   -3.8090  -60.4240 C   0  0  0  0  0  0  0  0  0  0  0  0
   32.9600   -3.9270  -60.0390 C   0  0  0  0  0  0  0  0  0  0  0  0
   32.6710   -2.7220  -60.6750 C   0  0  0  0  0  0  0  0  0  0  0  0
   34.2990   -4.2070  -59.6840 C   0  0  0  0  0  0  0  0  0  0  0  0
   34.9240   -2.0530  -60.6650 C   0  0  0  0  0  0  0  0  0  0  0  0
   29.0170   -0.7160  -63.0970 C   0  0  1  0  0  0  0  0  0  0  0  0
   30.2040   -1.6840  -63.0200 C   0  0  2  0  0  0  0  0  0  0  0  0
   28.5540   -0.5390  -61.6330 C   0  0  1  0  0  0  0  0  0  0  0  0
   30.6100   -1.5630  -61.5420 C   0  0  2  0  0  0  0  0  0  0  0  0
   31.5560   -5.8900  -59.2780 C   0  0  0  0  0  0  0  0  0  0  0  0
   27.1180   -0.9950  -61.3420 C   0  0  1  0  0  0  0  0  0  0  0  0
   33.6370   -1.8310  -60.9740 N   0  0  0  0  0  0  0  0  0  0  0  0
   35.2870   -3.2540  -60.0110 N   0  0  0  0  0  0  0  0  0  0  0  0
   31.7760   -4.5460  -59.9120 N   0  0  0  0  0  0  0  0  0  0  0  0
   31.3610   -2.6950  -60.8970 N   0  3  0  0  0  0  0  0  0  0  0  0
   35.8340   -1.1290  -60.9730 N   0  0  0  0  0  0  0  0  0  0  0  0
   28.2780   -5.4730  -65.9730 O   0  5  0  0  0  0  0  0  0  0  0  0
   28.9660   -4.9300  -63.5490 O   0  5  0  0  0  0  0  0  0  0  0  0
   24.5750   -2.2500  -62.1030 O   0  5  0  0  0  0  0  0  0  0  0  0
   25.7070   -1.6840  -64.8500 O   0  5  0  0  0  0  0  0  0  0  0  0
   34.6350   -5.2520  -59.1140 O   0  0  0  0  0  0  0  0  0  0  0  0
   30.3500   -3.9440  -65.4800 O   0  0  0  0  0  0  0  0  0  0  0  0
   25.4280   -4.4450  -61.0450 O   0  0  0  0  0  0  0  0  0  0  0  0
   25.6930   -3.9800  -66.0390 O   0  0  0  0  0  0  0  0  0  0  0  0
   29.3650   -1.4210  -60.8210 O   0  0  0  0  0  0  0  0  0  0  0  0
   29.4640    0.5470  -63.6380 O   0  0  0  0  0  0  0  0  0  0  0  0
   31.2800   -1.2340  -63.8720 O   0  0  0  0  0  0  0  0  0  0  0  0
   27.0220   -2.4340  -61.2770 O   0  0  0  0  0  0  0  0  0  0  0  0
   27.9260   -3.0480  -65.1570 O   0  0  0  0  0  0  0  0  0  0  0  0
   26.1940   -3.8360  -63.4030 O   0  0  0  0  0  0  0  0  0  0  0  0
   28.8750   -4.3800  -64.9370 P   0  0  0  0  0  0  0  0  0  0  0  0
   25.7470   -3.1600  -61.9690 P   0  0  2  0  0  0  0  0  0  0  0  0
   26.3140   -3.0460  -64.8480 P   0  0  1  0  0  0  0  0  0  0  0  0
  1 16  1  0  0  0  0
  2 21  1  0  0  0  0
  3 22  1  0  0  0  0
  4 23  1  0  0  0  0
  5 24  1  0  0  0  0
  6 25  1  0  0  0  0
  7 25  1  0  0  0  0
  8 25  1  0  0  0  0
  9 26  1  0  0  0  0
 10 26  1  0  0  0  0
 11 28  1  0  0  0  0
 12 31  1  0  0  0  0
 13 31  1  0  0  0  0
 14 41  1  0  0  0  0
 15 42  1  0  0  0  0
 16 29  1  0  0  0  0
 16 30  2  0  0  0  0
 17 18  2  0  0  0  0
 17 19  1  0  0  0  0
 17 29  1  0  0  0  0
 18 27  1  0  0  0  0
 18 30  1  0  0  0  0
 19 28  1  0  0  0  0
 19 36  2  0  0  0  0
 20 27  2  0  0  0  0
 20 28  1  0  0  0  0
 20 31  1  0  0  0  0
 21 22  1  0  0  0  0
 21 23  1  0  0  0  0
 21 41  1  0  0  0  0
 22 24  1  0  0  0  0
 22 42  1  0  0  0  0
 23 26  1  0  0  0  0
 23 40  1  0  0  0  0
 24 30  1  0  0  0  0
 24 40  1  0  0  0  0
 25 29  1  0  0  0  0
 26 43  1  0  0  0  0
 32 46  1  0  0  0  0
 33 46  1  0  0  0  0
 34 47  1  0  0  0  0
 35 48  1  0  0  0  0
 37 46  2  0  0  0  0
 38 47  2  0  0  0  0
 39 48  2  0  0  0  0
 43 47  1  0  0  0  0
 44 46  1  0  0  0  0
 44 48  1  0  0  0  0
 45 47  1  0  0  0  0
 45 48  1  0  0  0  0
M  CHG  5  32  -1  33  -1  35  -1  34  -1  30   1
M  END
> <scpdb_id>
2vqz_5

$$$$
