@<TRIPOS>MOLECULE
2vqz_MGT_5_ligand
   48    50     1     0     0
SMALL
NO_CHARGES


@<TRIPOS>ATOM
     1 PG          28.8750    -4.3800   -64.9370 P.3          1 MGT1483   0.0000
     2 O1G         30.3500    -3.9440   -65.4800 O.co2        1 MGT1483   0.0000
     3 O2G         28.2780    -5.4730   -65.9730 O.co2        1 MGT1483  -1.0000
     4 O3G         28.9660    -4.9300   -63.5490 O.co2        1 MGT1483  -1.0000
     5 O3B         27.9260    -3.0480   -65.1570 O.3          1 MGT1483   0.0000
     6 PB          26.3140    -3.0460   -64.8480 P.3          1 MGT1483   0.0000
     7 O1B         25.6930    -3.9800   -66.0390 O.co2        1 MGT1483   0.0000
     8 O2B         25.7070    -1.6840   -64.8500 O.co2        1 MGT1483  -1.0000
     9 O3A         26.1940    -3.8360   -63.4030 O.3          1 MGT1483   0.0000
    10 PA          25.7470    -3.1600   -61.9690 P.3          1 MGT1483   0.0000
    11 O1A         25.4280    -4.4450   -61.0450 O.co2        1 MGT1483   0.0000
    12 O2A         24.5750    -2.2500   -62.1030 O.co2        1 MGT1483  -1.0000
    13 O5'         27.0220    -2.4340   -61.2770 O.3          1 MGT1483   0.0000
    14 C5'         27.1180    -0.9950   -61.3420 C.3          1 MGT1483   0.0000
    15 C4'         28.5540    -0.5390   -61.6330 C.3          1 MGT1483   0.0000
    16 O4'         29.3650    -1.4210   -60.8210 O.3          1 MGT1483   0.0000
    17 C3'         29.0170    -0.7160   -63.0970 C.3          1 MGT1483   0.0000
    18 O3'         29.4640     0.5470   -63.6380 O.3          1 MGT1483   0.0000
    19 C2'         30.2040    -1.6840   -63.0200 C.3          1 MGT1483   0.0000
    20 O2'         31.2800    -1.2340   -63.8720 O.3          1 MGT1483   0.0000
    21 C1'         30.6100    -1.5630   -61.5420 C.3          1 MGT1483   0.0000
    22 N9          31.3610    -2.6950   -60.8970 N.2          1 MGT1483   1.0000
    23 C8          30.7740    -3.8090   -60.4240 C.2          1 MGT1483   0.0000
    24 N7          31.7760    -4.5460   -59.9120 N.pl3        1 MGT1483   0.0000
    25 CM7         31.5560    -5.8900   -59.2780 C.3          1 MGT1483   0.0000
    26 C5          32.9600    -3.9270   -60.0390 C.2          1 MGT1483   0.0000
    27 C6          34.2990    -4.2070   -59.6840 C.2          1 MGT1483   0.0000
    28 O6          34.6350    -5.2520   -59.1140 O.2          1 MGT1483   0.0000
    29 N1          35.2870    -3.2540   -60.0110 N.pl3        1 MGT1483   0.0000
    30 C2          34.9240    -2.0530   -60.6650 C.2          1 MGT1483   0.0000
    31 N2          35.8340    -1.1290   -60.9730 N.pl3        1 MGT1483   0.0000
    32 N3          33.6370    -1.8310   -60.9740 N.2          1 MGT1483   0.0000
    33 C4          32.6710    -2.7220   -60.6750 C.2          1 MGT1483   0.0000
    34 H5'1        26.8261    -0.6101   -60.4664 H            1 MGT1483   0.0000
    35 H5'2        26.5178    -0.6619   -62.0692 H            1 MGT1483   0.0000
    36 H4'         28.6801     0.4098   -61.3435 H            1 MGT1483   0.0000
    37 H3'         28.2826    -1.1005   -63.6563 H            1 MGT1483   0.0000
    38 H5          30.4219     0.4708   -63.9148 H            1 MGT1483   0.0000
    39 H2'         29.9272    -2.6180   -63.2460 H            1 MGT1483   0.0000
    40 H7          31.4756    -1.9334   -64.5595 H            1 MGT1483   0.0000
    41 H1'         31.1410    -0.7235   -61.4266 H            1 MGT1483   0.0000
    42 H9          29.8013    -4.0398   -60.4479 H            1 MGT1483   0.0000
    43 HM71        32.4317    -6.2591   -58.9668 H            1 MGT1483   0.0000
    44 HM72        30.9387    -5.7932   -58.4972 H            1 MGT1483   0.0000
    45 HM73        31.1511    -6.5123   -59.9479 H            1 MGT1483   0.0000
    46 H13         35.5552    -0.2873   -61.4354 H            1 MGT1483   0.0000
    47 H14         36.7955    -1.2775   -60.7417 H            1 MGT1483   0.0000
    48 H15         36.2444    -3.4276   -59.7803 H            1 MGT1483   0.0000
@<TRIPOS>BOND
     1    1    2      ar
     2    1    3      ar
     3    1    4      ar
     4    1    5       1
     5    5    6       1
     6    6    7      ar
     7    6    8      ar
     8    6    9       1
     9    9   10       1
    10   10   11      ar
    11   10   12      ar
    12   10   13       1
    13   13   14       1
    14   14   15       1
    15   15   16       1
    16   15   17       1
    17   16   21       1
    18   17   18       1
    19   17   19       1
    20   19   20       1
    21   19   21       1
    22   21   22       1
    23   22   23       2
    24   22   33       1
    25   23   24       1
    26   24   25       1
    27   24   26       1
    28   26   27       1
    29   26   33       2
    30   27   28       2
    31   27   29       1
    32   29   30       1
    33   30   31       1
    34   30   32       2
    35   32   33       1
    36   29   48       1
    37   31   47       1
    38   31   46       1
    39   25   45       1
    40   14   34       1
    41   14   35       1
    42   15   36       1
    43   17   37       1
    44   18   38       1
    45   19   39       1
    46   20   40       1
    47   21   41       1
    48   23   42       1
    49   25   43       1
    50   25   44       1
@<TRIPOS>SUBSTRUCTURE
     1 MGT1483     1 GROUP             4 F     MGT     0 **** MGT F1483
