#    Name: 48650
#    Modification time : Tue Aug  8 21:15:37 2017

@<TRIPOS>MOLECULE
48650
   32     0     9     0     0
SMALL
NO_CHARGES


@<TRIPOS>ATOM
      1 N          16.5370    0.1200    0.3500 N.am      1 SEL1        0.0000 
      2 N          13.8330   -5.2990   -2.0720 N.am      1 SEL1        0.0000 
      3 N           8.3330   -4.6810   -5.7630 N.am      1 SEL1        0.0000 
      4 N          11.4660   -2.1840   -3.6120 N.am      1 SEL1        0.0000 
      5 O          18.2800    1.2090   -0.7870 O.2       2 ALL2        0.0000 
      6 O          12.4300   -4.2550   -4.0930 O.2       2 ALL2        0.0000 
      7 CA         15.7310   -3.9270   -2.6910 C.3       3 GLL5        0.0000 
      8 CA         14.2210   -4.0000   -2.5010 C.3       3 GLL5        0.0000 
      9 CA          9.3970   -3.7480   -5.4180 C.3       3 GLL5        0.0000 
     10 CA         14.9510   -3.8420   -6.0550 C.3       3 GLL5        0.0000 
     11 N          16.7760    2.1140    2.6750 N.am      4 SEP1        0.0000 
     12 N          15.9340   -7.6620   -2.5240 N.am      4 SEP1        0.0000 
     13 N           8.0270   -7.6270   -5.8870 N.am      4 SEP1        0.0000 
     14 N          12.5470    0.1360   -2.2730 N.am      4 SEP1        0.0000 
     15 O          21.3340    1.6420   -2.1200 O.2       5 ALP2        0.0000 
     16 O          18.7870    3.3660    1.1260 O.2       5 ALP2        0.0000 
     17 O          11.7600   -7.1140   -4.9860 O.2       5 ALP2        0.0000 
     18 CA         17.9700   -4.1300    0.1370 C.3       6 GLP5        0.0000 
     19 CA         13.5550   -4.6310    1.4180 C.3       6 GLP5        0.0000 
     20 CA         10.9100   -5.2850   -9.2440 C.3       6 GLP5        0.0000 
     21 CA         14.4100   -6.5230   -8.0490 C.3       6 GLP5        0.0000 
     22 N          16.6565    1.1170    1.5125 N.am      7 SEC1        0.0000 
     23 N          14.8835   -6.4805   -2.2980 N.am      7 SEC1        0.0000 
     24 N           8.1800   -6.1540   -5.8250 N.am      7 SEC1        0.0000 
     25 N          12.0065   -1.0240   -2.9425 N.am      7 SEC1        0.0000 
     26 O          19.8070    1.4255   -1.4535 O.2       8 ALC2        0.0000 
     27 O          18.5335    2.2875    0.1695 O.2       8 ALC2        0.0000 
     28 O          12.0950   -5.6845   -4.5395 O.2       8 ALC2        0.0000 
     29 CA         16.8505   -4.0285   -1.2770 C.3       9 GLC5        0.0000 
     30 CA         13.8880   -4.3155   -0.5415 C.3       9 GLC5        0.0000 
     31 CA         10.1535   -4.5165   -7.3310 C.3       9 GLC5        0.0000 
     32 CA         14.6352   -5.3543   -6.7230 C.3       9 GLC5        0.0000 
@<TRIPOS>BOND
@<TRIPOS>SUBSTRUCTURE
     1 SEL1        1 GROUP        1 Z    SEL  0     ROOT SEL Z 0
     2 ALL2        5 GROUP        1 Z    ALL  0     **** ALL Z 1
     3 GLL5        7 GROUP        1 Z    GLL  0     **** GLL Z 4
     4 SEP1       11 GROUP        1 Z    SEP  0     **** SEP Z 7
     5 ALP2       15 GROUP        1 Z    ALP  0     **** ALP Z 8
     6 GLP5       18 GROUP        1 Z    GLP  0     **** GLP Z 11
     7 SEC1       22 GROUP        1 Z    SEC  0     **** SEC Z 14
     8 ALC2       26 GROUP        1 Z    ALC  0     **** ALC Z 15
     9 GLC5       29 GROUP        1 Z    GLC  0     **** GLC Z 18
@<TRIPOS>SET

