4rr6_A3S_1_ligand
  -OEChem-08111718373D

 45 47  0     1  0  0  0  0  0999 V2000
   15.0105   -0.8330    1.2558 H   0  0  0  0  0  0  0  0  0  0  0  0
   17.8250   -2.6010   -4.1691 H   0  0  0  0  0  0  0  0  0  0  0  0
   13.7990   -2.7575   -4.1476 H   0  0  0  0  0  0  0  0  0  0  0  0
   13.8962   -3.2940   -1.8717 H   0  0  0  0  0  0  0  0  0  0  0  0
   14.4725   -5.4759   -4.8612 H   0  0  0  0  0  0  0  0  0  0  0  0
   16.1234   -4.5747   -2.0379 H   0  0  0  0  0  0  0  0  0  0  0  0
   15.6765   -4.2966   -6.5717 H   0  0  0  0  0  0  0  0  0  0  0  0
   14.0967   -3.8833   -6.5731 H   0  0  0  0  0  0  0  0  0  0  0  0
   10.0887   -3.7455   -6.1402 H   0  0  0  0  0  0  0  0  0  0  0  0
    9.0175   -2.8284   -5.3168 H   0  0  0  0  0  0  0  0  0  0  0  0
   10.2106   -5.1790   -4.1379 H   0  0  0  0  0  0  0  0  0  0  0  0
   18.9027    1.2510   -1.5683 H   0  0  0  0  0  0  0  0  0  0  0  0
   18.3192    1.9131   -0.0780 H   0  0  0  0  0  0  0  0  0  0  0  0
   12.3101   -5.2098   -4.3650 H   0  0  0  0  0  0  0  0  0  0  0  0
    8.8720   -2.9863   -2.8979 H   0  0  0  0  0  0  0  0  0  0  0  0
    9.5189   -4.2513   -2.0929 H   0  0  0  0  0  0  0  0  0  0  0  0
   14.2795   -5.5101   -1.2025 H   0  0  0  0  0  0  0  0  0  0  0  0
   16.2012   -2.2902   -6.2450 H   0  0  0  0  0  0  0  0  0  0  0  0
    7.6434   -4.6828   -5.0388 H   0  0  0  0  0  0  0  0  0  0  0  0
   15.6340   -0.8380    0.4740 C   0  0  0  0  0  0  0  0  0  0  0  0
   17.5020   -2.1690   -3.3270 C   0  0  0  0  0  0  0  0  0  0  0  0
   17.3150   -0.7930   -1.6490 C   0  0  0  0  0  0  0  0  0  0  0  0
   16.3740   -1.7930   -1.4920 C   0  0  0  0  0  0  0  0  0  0  0  0
   17.3920    0.2080   -0.6900 C   0  0  0  0  0  0  0  0  0  0  0  0
   11.3760   -3.5090   -3.8960 C   0  0  0  0  0  0  0  0  0  0  0  0
   13.7590   -3.7320   -3.9270 C   0  0  1  0  0  0  0  0  0  0  0  0
   14.2210   -4.0000   -2.5010 C   0  0  2  0  0  0  0  0  0  0  0  0
   14.7700   -4.5290   -4.7390 C   0  0  1  0  0  0  0  0  0  0  0  0
   15.7310   -3.9270   -2.6910 C   0  0  2  0  0  0  0  0  0  0  0  0
   14.9510   -3.8420   -6.0550 C   0  0  1  0  0  0  0  0  0  0  0  0
    9.3970   -3.7480   -5.4180 C   0  0  2  0  0  0  0  0  0  0  0  0
   10.0420   -4.1950   -4.0810 C   0  0  2  0  0  0  0  0  0  0  0  0
   15.5470   -1.8140   -0.4370 N   0  0  0  0  0  0  0  0  0  0  0  0
   16.5370    0.1200    0.3500 N   0  0  0  0  0  0  0  0  0  0  0  0
   17.9690   -1.0290   -2.7940 N   0  0  0  0  0  0  0  0  0  0  0  0
   16.5160   -2.6300   -2.5220 N   0  0  0  0  0  0  0  0  0  0  0  0
   18.2800    1.2090   -0.7870 N   0  0  0  0  0  0  0  0  0  0  0  0
   12.4300   -4.2550   -4.0930 N   0  0  0  0  0  0  0  0  0  0  0  0
    9.0940   -3.9600   -2.9500 N   0  3  0  0  0  0  0  0  0  0  0  0
   11.4660   -2.1840   -3.6120 O   0  0  0  0  0  0  0  0  0  0  0  0
   16.0290   -4.4600   -4.0160 O   0  0  0  0  0  0  0  0  0  0  0  0
   13.8330   -5.2990   -2.0720 O   0  0  0  0  0  0  0  0  0  0  0  0
   15.3090   -2.4730   -5.8320 O   0  0  0  0  0  0  0  0  0  0  0  0
    8.3330   -4.6810   -5.7630 O   0  0  0  0  0  0  0  0  0  0  0  0
    8.2567   -4.4851   -3.1023 H   0  0  0  0  0  0  0  0  0  0  0  0
  1 20  1  0  0  0  0
  2 21  1  0  0  0  0
  3 26  1  0  0  0  0
  4 27  1  0  0  0  0
  5 28  1  0  0  0  0
  6 29  1  0  0  0  0
  7 30  1  0  0  0  0
  8 30  1  0  0  0  0
  9 31  1  0  0  0  0
 10 31  1  0  0  0  0
 11 32  1  0  0  0  0
 12 37  1  0  0  0  0
 13 37  1  0  0  0  0
 14 38  1  0  0  0  0
 15 39  1  0  0  0  0
 16 39  1  0  0  0  0
 17 42  1  0  0  0  0
 18 43  1  0  0  0  0
 19 44  1  0  0  0  0
 20 33  1  0  0  0  0
 20 34  2  0  0  0  0
 21 35  2  0  0  0  0
 21 36  1  0  0  0  0
 22 23  1  0  0  0  0
 22 24  2  0  0  0  0
 22 35  1  0  0  0  0
 23 33  2  0  0  0  0
 23 36  1  0  0  0  0
 24 34  1  0  0  0  0
 24 37  1  0  0  0  0
 25 32  1  0  0  0  0
 25 38  1  0  0  0  0
 25 40  2  0  0  0  0
 26 27  1  0  0  0  0
 26 28  1  0  0  0  0
 26 38  1  0  0  0  0
 27 29  1  0  0  0  0
 27 42  1  0  0  0  0
 28 30  1  0  0  0  0
 28 41  1  0  0  0  0
 29 36  1  0  0  0  0
 29 41  1  0  0  0  0
 30 43  1  0  0  0  0
 31 32  1  0  0  0  0
 31 44  1  0  0  0  0
 32 39  1  0  0  0  0
 39 45  1  0  0  0  0
M  CHG  1  39   1
M  END
> <scpdb_id>
4rr6_1

$$$$
