@<TRIPOS>MOLECULE
4rr6_A3S_1_ligand
   45    47     1     0     0
SMALL
NO_CHARGES


@<TRIPOS>ATOM
     1 O5'         15.3090    -2.4730    -5.8320 O.3          1 A3S500   0.0000
     2 C5'         14.9510    -3.8420    -6.0550 C.3          1 A3S500   0.0000
     3 C4'         14.7700    -4.5290    -4.7390 C.3          1 A3S500   0.0000
     4 O4'         16.0290    -4.4600    -4.0160 O.3          1 A3S500   0.0000
     5 C1'         15.7310    -3.9270    -2.6910 C.3          1 A3S500   0.0000
     6 N9          16.5160    -2.6300    -2.5220 N.pl3        1 A3S500   0.0000
     7 C4          16.3740    -1.7930    -1.4920 C.ar         1 A3S500   0.0000
     8 N3          15.5470    -1.8140    -0.4370 N.ar         1 A3S500   0.0000
     9 C2          15.6340    -0.8380     0.4740 C.ar         1 A3S500   0.0000
    10 N1          16.5370     0.1200     0.3500 N.ar         1 A3S500   0.0000
    11 C6          17.3920     0.2080    -0.6900 C.ar         1 A3S500   0.0000
    12 N6          18.2800     1.2090    -0.7870 N.pl3        1 A3S500   0.0000
    13 C5          17.3150    -0.7930    -1.6490 C.ar         1 A3S500   0.0000
    14 N7          17.9690    -1.0290    -2.7940 N.2          1 A3S500   0.0000
    15 C8          17.5020    -2.1690    -3.3270 C.2          1 A3S500   0.0000
    16 C2'         14.2210    -4.0000    -2.5010 C.3          1 A3S500   0.0000
    17 O2'         13.8330    -5.2990    -2.0720 O.3          1 A3S500   0.0000
    18 C3'         13.7590    -3.7320    -3.9270 C.3          1 A3S500   0.0000
    19 N8          12.4300    -4.2550    -4.0930 N.am         1 A3S500   0.0000
    20 N            9.0940    -3.9600    -2.9500 N.4          1 A3S500   1.0000
    21 CA          10.0420    -4.1950    -4.0810 C.3          1 A3S500   0.0000
    22 CB           9.3970    -3.7480    -5.4180 C.3          1 A3S500   0.0000
    23 OG           8.3330    -4.6810    -5.7630 O.3          1 A3S500   0.0000
    24 C           11.3760    -3.5090    -3.8960 C.2          1 A3S500   0.0000
    25 O           11.4660    -2.1840    -3.6120 O.2          1 A3S500   0.0000
    26 H5'         16.2012    -2.2902    -6.2450 H            1 A3S500   0.0000
    27 H5'1        15.6765    -4.2966    -6.5717 H            1 A3S500   0.0000
    28 H5'2        14.0967    -3.8833    -6.5731 H            1 A3S500   0.0000
    29 H4'         14.4725    -5.4759    -4.8612 H            1 A3S500   0.0000
    30 H1'         16.1234    -4.5747    -2.0379 H            1 A3S500   0.0000
    31 H6          15.0105    -0.8330     1.2558 H            1 A3S500   0.0000
    32 H7          18.9027     1.2510    -1.5683 H            1 A3S500   0.0000
    33 H8          18.3192     1.9131    -0.0780 H            1 A3S500   0.0000
    34 H9          17.8250    -2.6010    -4.1691 H            1 A3S500   0.0000
    35 H2'         13.8962    -3.2940    -1.8717 H            1 A3S500   0.0000
    36 H11         14.2795    -5.5101    -1.2025 H            1 A3S500   0.0000
    37 H3'         13.7990    -2.7575    -4.1476 H            1 A3S500   0.0000
    38 H13         12.3101    -5.2098    -4.3650 H            1 A3S500   0.0000
    39 H14          9.5189    -4.2512    -2.0929 H            1 A3S500   0.0000
    40 H15          8.8720    -2.9863    -2.8980 H            1 A3S500   0.0000
    41 HA          10.2106    -5.1790    -4.1379 H            1 A3S500   0.0000
    42 HB1         10.0887    -3.7455    -6.1402 H            1 A3S500   0.0000
    43 HB2          9.0175    -2.8284    -5.3168 H            1 A3S500   0.0000
    44 HG           7.6434    -4.6828    -5.0388 H            1 A3S500   0.0000
    45 H20          8.2567    -4.4851    -3.1023 H            1 A3S500   0.0000
@<TRIPOS>BOND
     1    1    2       1
     2    2    3       1
     3    3    4       1
     4    3   18       1
     5    4    5       1
     6    5    6       1
     7    5   16       1
     8    6    7       1
     9    6   15       1
    10    7    8      ar
    11    7   13      ar
    12    8    9      ar
    13    9   10      ar
    14   10   11      ar
    15   11   12       1
    16   11   13      ar
    17   13   14       1
    18   14   15       2
    19   16   17       1
    20   16   18       1
    21   18   19       1
    22   19   24      am
    23   20   21       1
    24   21   22       1
    25   21   24       1
    26   22   23       1
    27   24   25       2
    28    1   26       1
    29    2   27       1
    30    2   28       1
    31    3   29       1
    32    5   30       1
    33    9   31       1
    34   12   32       1
    35   12   33       1
    36   15   34       1
    37   16   35       1
    38   17   36       1
    39   18   37       1
    40   19   38       1
    41   20   39       1
    42   20   40       1
    43   21   41       1
    44   22   42       1
    45   22   43       1
    46   23   44       1
    47   20   45       1
@<TRIPOS>SUBSTRUCTURE
     1 A3S500      1 GROUP             4 A     A3S     0 **** A3S A 500
