#    Name: 11525
#    Modification time : Tue Aug  8 20:17:27 2017

@<TRIPOS>MOLECULE
11525
   37     0     9     0     0
SMALL
NO_CHARGES


@<TRIPOS>ATOM
      1 N          13.3630   18.8950   30.6850 N.am      1 SEL1        0.0000 
      2 N          13.5610   13.8120   39.8990 N.am      1 SEL1        0.0000 
      3 O          11.9970   20.4730   31.7300 O.2       2 ALL2        0.0000 
      4 O          13.6880   19.4460   32.9430 O.2       2 ALL2        0.0000 
      5 CA         16.6390   14.2980   31.1740 C.3       3 GLL5        0.0000 
      6 CA         13.8600   13.2110   35.5140 C.3       3 GLL5        0.0000 
      7 CA         18.2680   13.7410   32.9360 C.3       3 GLL5        0.0000 
      8 CA         19.1460   15.9790   34.0920 C.3       3 GLL5        0.0000 
      9 CA         14.5700   17.0860   29.6400 C.3       3 GLL5        0.0000 
     10 CA         16.0560   15.6610   30.9980 C.3       3 GLL5        0.0000 
     11 CA         14.5790   13.2320   33.1740 C.3       3 GLL5        0.0000 
     12 N          12.4500   19.1600   27.5360 N.am      4 SEP1        0.0000 
     13 N          16.1880   15.4650   40.7670 N.am      4 SEP1        0.0000 
     14 O          10.3500   20.4520   34.3610 O.2       5 ALP2        0.0000 
     15 O          12.9550   21.1120   35.0840 O.2       5 ALP2        0.0000 
     16 CA         18.6850   13.2230   27.8340 C.3       6 GLP5        0.0000 
     17 CA         15.2840    9.2270   34.4970 C.3       6 GLP5        0.0000 
     18 CA         17.9810    9.5780   32.8410 C.3       6 GLP5        0.0000 
     19 CA         19.9980   14.5700   37.1520 C.3       6 GLP5        0.0000 
     20 CA         11.8770   14.9260   29.6100 C.3       6 GLP5        0.0000 
     21 CA         19.2170   18.6050   30.1910 C.3       6 GLP5        0.0000 
     22 CA         15.6440   18.0610   26.3900 C.3       6 GLP5        0.0000 
     23 CA         15.3710    9.7270   33.0500 C.3       6 GLP5        0.0000 
     24 CA         19.8700   12.3230   36.0600 C.3       6 GLP5        0.0000 
     25 N          12.9065   19.0275   29.1105 N.am      7 SEC1        0.0000 
     26 N          14.8745   14.6385   40.3330 N.am      7 SEC1        0.0000 
     27 O          11.1735   20.4625   33.0455 O.2       8 ALC2        0.0000 
     28 O          13.3215   20.2790   34.0135 O.2       8 ALC2        0.0000 
     29 CA         17.6620   13.7605   29.5040 C.3       9 GLC5        0.0000 
     30 CA         14.5720   11.2190   35.0055 C.3       9 GLC5        0.0000 
     31 CA         18.1245   11.6595   32.8885 C.3       9 GLC5        0.0000 
     32 CA         19.5720   15.2745   35.6220 C.3       9 GLC5        0.0000 
     33 CA         13.2235   16.0060   29.6250 C.3       9 GLC5        0.0000 
     34 CA         17.5705   17.3475   30.8700 C.3       9 GLC5        0.0000 
     35 CA         15.3280   17.3000   28.0460 C.3       9 GLC5        0.0000 
     36 CA         15.1793   11.5515   33.3235 C.3       9 GLC5        0.0000 
     37 CA         19.1873   13.3383   34.6615 C.3       9 GLC5        0.0000 
@<TRIPOS>BOND
@<TRIPOS>SUBSTRUCTURE
     1 SEL1        1 GROUP        1 Z    SEL  0     ROOT SEL Z 0
     2 ALL2        3 GROUP        1 Z    ALL  0     **** ALL Z 1
     3 GLL5        5 GROUP        1 Z    GLL  0     **** GLL Z 4
     4 SEP1       12 GROUP        1 Z    SEP  0     **** SEP Z 7
     5 ALP2       14 GROUP        1 Z    ALP  0     **** ALP Z 8
     6 GLP5       16 GROUP        1 Z    GLP  0     **** GLP Z 11
     7 SEC1       25 GROUP        1 Z    SEC  0     **** SEC Z 14
     8 ALC2       27 GROUP        1 Z    ALC  0     **** ALC Z 15
     9 GLC5       29 GROUP        1 Z    GLC  0     **** GLC Z 18
@<TRIPOS>SET

