1zpr_CB3_1_ligand
  -OEChem-08111718373D

 56 58  0     1  0  0  0  0  0999 V2000
   19.4832   16.8225   34.5100 H   0  0  0  0  0  0  0  0  0  0  0  0
   12.6599   12.7602   33.8586 H   0  0  0  0  0  0  0  0  0  0  0  0
   15.3772   13.7369   36.8609 H   0  0  0  0  0  0  0  0  0  0  0  0
   15.6591   15.4374   28.9575 H   0  0  0  0  0  0  0  0  0  0  0  0
   14.1459   17.2849   28.7565 H   0  0  0  0  0  0  0  0  0  0  0  0
   14.3567   13.0977   32.2083 H   0  0  0  0  0  0  0  0  0  0  0  0
   17.0800   14.0677   35.2090 H   0  0  0  0  0  0  0  0  0  0  0  0
   16.2378   16.3346   32.9759 H   0  0  0  0  0  0  0  0  0  0  0  0
   18.8042   13.5876   32.1059 H   0  0  0  0  0  0  0  0  0  0  0  0
   18.3925   12.9700   33.5605 H   0  0  0  0  0  0  0  0  0  0  0  0
   17.5249   14.2850   30.7104 H   0  0  0  0  0  0  0  0  0  0  0  0
   16.0226   13.6453   30.7335 H   0  0  0  0  0  0  0  0  0  0  0  0
   11.2340    9.5951   38.8989 H   0  0  0  0  0  0  0  0  0  0  0  0
   12.1649    8.8104   39.9870 H   0  0  0  0  0  0  0  0  0  0  0  0
   12.7745   10.8456   40.4841 H   0  0  0  0  0  0  0  0  0  0  0  0
   13.8601   10.5683   39.2961 H   0  0  0  0  0  0  0  0  0  0  0  0
   11.4900   11.8908   38.5150 H   0  0  0  0  0  0  0  0  0  0  0  0
   13.4938   20.0486   33.7171 H   0  0  0  0  0  0  0  0  0  0  0  0
   11.7479   21.0050   32.5393 H   0  0  0  0  0  0  0  0  0  0  0  0
   11.4784   20.5806   30.8818 H   0  0  0  0  0  0  0  0  0  0  0  0
   14.1743   11.8179   37.5476 H   0  0  0  0  0  0  0  0  0  0  0  0
   19.1460   15.9790   34.0920 C   0  0  0  0  0  0  0  0  0  0  0  0
   18.7410   14.9660   33.5900 C   0  0  0  0  0  0  0  0  0  0  0  0
   13.5790   13.0320   34.1440 C   0  0  0  0  0  0  0  0  0  0  0  0
   15.1620   13.6000   35.8940 C   0  0  0  0  0  0  0  0  0  0  0  0
   15.4540   15.9920   29.7640 C   0  0  0  0  0  0  0  0  0  0  0  0
   14.5700   17.0860   29.6400 C   0  0  0  0  0  0  0  0  0  0  0  0
   14.5790   13.2320   33.1740 C   0  0  0  0  0  0  0  0  0  0  0  0
   16.1620   13.7970   34.9190 C   0  0  0  0  0  0  0  0  0  0  0  0
   15.7920   16.5190   32.1000 C   0  0  0  0  0  0  0  0  0  0  0  0
   14.9190   17.6240   31.9950 C   0  0  0  0  0  0  0  0  0  0  0  0
   13.8600   13.2110   35.5140 C   0  0  0  0  0  0  0  0  0  0  0  0
   16.0560   15.6610   30.9980 C   0  0  0  0  0  0  0  0  0  0  0  0
   14.2820   17.8990   30.7540 C   0  0  0  0  0  0  0  0  0  0  0  0
   15.8960   13.6200   33.5350 C   0  0  0  0  0  0  0  0  0  0  0  0
   14.6100   18.4740   33.0740 C   0  0  0  0  0  0  0  0  0  0  0  0
   13.0220   19.6190   31.7820 C   0  0  0  0  0  0  0  0  0  0  0  0
   12.8390   12.9120   36.5130 C   0  0  0  0  0  0  0  0  0  0  0  0
   12.7560    8.5080   38.0380 C   0  0  0  0  0  0  0  0  0  0  0  0
   12.5240   13.1410   39.8180 C   0  0  0  0  0  0  0  0  0  0  0  0
   18.2680   13.7410   32.9360 C   0  0  1  0  0  0  0  0  0  0  0  0
   16.6390   14.2980   31.1740 C   0  0  2  0  0  0  0  0  0  0  0  0
   12.1730    9.3680   39.1570 C   0  0  1  0  0  0  0  0  0  0  0  0
   12.8900   10.6970   39.5020 C   0  0  1  0  0  0  0  0  0  0  0  0
   12.4450   11.9970   38.7920 C   0  0  2  0  0  0  0  0  0  0  0  0
   13.3630   18.8950   30.6850 N   0  0  0  0  0  0  0  0  0  0  0  0
   13.6880   19.4460   32.9430 N   0  0  0  0  0  0  0  0  0  0  0  0
   11.9970   20.4730   31.7300 N   0  0  0  0  0  0  0  0  0  0  0  0
   13.2570   12.2150   37.5770 N   0  0  0  0  0  0  0  0  0  0  0  0
   16.8560   13.8390   32.5780 N   0  0  3  0  0  0  0  0  0  0  0  0
   12.0870    8.3710   37.0080 O   0  5  0  0  0  0  0  0  0  0  0  0
   11.5670   13.3140   40.5800 O   0  5  0  0  0  0  0  0  0  0  0  0
   15.2150   18.3200   34.2980 O   0  0  0  0  0  0  0  0  0  0  0  0
   11.6380   13.2040   36.3860 O   0  0  0  0  0  0  0  0  0  0  0  0
   13.8450    7.9440   38.2130 O   0  0  0  0  0  0  0  0  0  0  0  0
   13.5610   13.8120   39.8990 O   0  0  0  0  0  0  0  0  0  0  0  0
  1 22  1  0  0  0  0
  2 24  1  0  0  0  0
  3 25  1  0  0  0  0
  4 26  1  0  0  0  0
  5 27  1  0  0  0  0
  6 28  1  0  0  0  0
  7 29  1  0  0  0  0
  8 30  1  0  0  0  0
  9 41  1  0  0  0  0
 10 41  1  0  0  0  0
 11 42  1  0  0  0  0
 12 42  1  0  0  0  0
 13 43  1  0  0  0  0
 14 43  1  0  0  0  0
 15 44  1  0  0  0  0
 16 44  1  0  0  0  0
 17 45  1  0  0  0  0
 18 47  1  0  0  0  0
 19 48  1  0  0  0  0
 20 48  1  0  0  0  0
 21 49  1  0  0  0  0
 22 23  3  0  0  0  0
 23 41  1  0  0  0  0
 24 28  1  0  0  0  0
 24 32  2  0  0  0  0
 25 29  2  0  0  0  0
 25 32  1  0  0  0  0
 26 27  1  0  0  0  0
 26 33  2  0  0  0  0
 27 34  2  0  0  0  0
 28 35  2  0  0  0  0
 29 35  1  0  0  0  0
 30 31  2  0  0  0  0
 30 33  1  0  0  0  0
 31 34  1  0  0  0  0
 31 36  1  0  0  0  0
 32 38  1  0  0  0  0
 33 42  1  0  0  0  0
 34 46  1  0  0  0  0
 35 50  1  0  0  0  0
 36 47  1  0  0  0  0
 36 53  2  0  0  0  0
 37 46  2  0  0  0  0
 37 47  1  0  0  0  0
 37 48  1  0  0  0  0
 38 49  1  0  0  0  0
 38 54  2  0  0  0  0
 39 43  1  0  0  0  0
 39 51  1  0  0  0  0
 39 55  2  0  0  0  0
 40 45  1  0  0  0  0
 40 52  1  0  0  0  0
 40 56  2  0  0  0  0
 41 50  1  0  0  0  0
 42 50  1  0  0  0  0
 43 44  1  0  0  0  0
 44 45  1  0  0  0  0
 45 49  1  0  0  0  0
M  CHG  2  51  -1  52  -1
M  END
> <scpdb_id>
1zpr_1

$$$$
