@<TRIPOS>MOLECULE
1zpr_CB3_1_ligand
   56    58     1     0     0
SMALL
NO_CHARGES


@<TRIPOS>ATOM
     1 N1          13.3630    18.8950    30.6850 N.2          1 CB3300   0.0000
     2 C2          13.0220    19.6190    31.7820 C.2          1 CB3300   0.0000
     3 NA2         11.9970    20.4730    31.7300 N.pl3        1 CB3300   0.0000
     4 N3          13.6880    19.4460    32.9430 N.pl3        1 CB3300   0.0000
     5 C4          14.6100    18.4740    33.0740 C.2          1 CB3300   0.0000
     6 O4          15.2150    18.3200    34.2980 O.2          1 CB3300   0.0000
     7 C4A         14.9190    17.6240    31.9950 C.ar         1 CB3300   0.0000
     8 C5          15.7920    16.5190    32.1000 C.ar         1 CB3300   0.0000
     9 C6          16.0560    15.6610    30.9980 C.ar         1 CB3300   0.0000
    10 C7          15.4540    15.9920    29.7640 C.ar         1 CB3300   0.0000
    11 C8          14.5700    17.0860    29.6400 C.ar         1 CB3300   0.0000
    12 C8A         14.2820    17.8990    30.7540 C.ar         1 CB3300   0.0000
    13 C9          16.6390    14.2980    31.1740 C.3          1 CB3300   0.0000
    14 N10         16.8560    13.8390    32.5780 N.pl3        1 CB3300   0.0000
    15 C11         13.8600    13.2110    35.5140 C.ar         1 CB3300   0.0000
    16 C12         13.5790    13.0320    34.1440 C.ar         1 CB3300   0.0000
    17 C13         14.5790    13.2320    33.1740 C.ar         1 CB3300   0.0000
    18 C14         15.8960    13.6200    33.5350 C.ar         1 CB3300   0.0000
    19 C15         16.1620    13.7970    34.9190 C.ar         1 CB3300   0.0000
    20 C16         15.1620    13.6000    35.8940 C.ar         1 CB3300   0.0000
    21 C           12.8390    12.9120    36.5130 C.2          1 CB3300   0.0000
    22 O           11.6380    13.2040    36.3860 O.2          1 CB3300   0.0000
    23 N           13.2570    12.2150    37.5770 N.am         1 CB3300   0.0000
    24 CA          12.4450    11.9970    38.7920 C.3          1 CB3300   0.0000
    25 CB          12.8900    10.6970    39.5020 C.3          1 CB3300   0.0000
    26 CG          12.1730     9.3680    39.1570 C.3          1 CB3300   0.0000
    27 CD          12.7560     8.5080    38.0380 C.2          1 CB3300   0.0000
    28 OE1         13.8450     7.9440    38.2130 O.co2        1 CB3300   0.0000
    29 OE2         12.0870     8.3710    37.0080 O.co2        1 CB3300  -1.0000
    30 CT          12.5240    13.1410    39.8180 C.2          1 CB3300   0.0000
    31 O1          13.5610    13.8120    39.8990 O.co2        1 CB3300   0.0000
    32 O2          11.5670    13.3140    40.5800 O.co2        1 CB3300  -1.0000
    33 CP1         18.2680    13.7410    32.9360 C.3          1 CB3300   0.0000
    34 CP2         18.7410    14.9660    33.5900 C.1          1 CB3300   0.0000
    35 CP3         19.1460    15.9790    34.0920 C.1          1 CB3300   0.0000
    36 HA21        11.7479    21.0050    32.5393 H            1 CB3300   0.0000
    37 HA22        11.4784    20.5806    30.8818 H            1 CB3300   0.0000
    38 H3          16.2378    16.3346    32.9759 H            1 CB3300   0.0000
    39 H4          15.6591    15.4374    28.9575 H            1 CB3300   0.0000
    40 H5          14.1459    17.2849    28.7565 H            1 CB3300   0.0000
    41 H6          17.5249    14.2850    30.7104 H            1 CB3300   0.0000
    42 H7          16.0226    13.6453    30.7335 H            1 CB3300   0.0000
    43 H8          12.6599    12.7602    33.8586 H            1 CB3300   0.0000
    44 H9          14.3567    13.0977    32.2083 H            1 CB3300   0.0000
    45 H10         17.0800    14.0677    35.2090 H            1 CB3300   0.0000
    46 H11         15.3772    13.7369    36.8609 H            1 CB3300   0.0000
    47 H12         14.1743    11.8179    37.5476 H            1 CB3300   0.0000
    48 HA          11.4900    11.8908    38.5150 H            1 CB3300   0.0000
    49 HB1         12.7745    10.8456    40.4841 H            1 CB3300   0.0000
    50 HB2         13.8601    10.5683    39.2961 H            1 CB3300   0.0000
    51 HG1         11.2340     9.5951    38.8989 H            1 CB3300   0.0000
    52 HG2         12.1649     8.8104    39.9870 H            1 CB3300   0.0000
    53 HP11        18.8042    13.5876    32.1059 H            1 CB3300   0.0000
    54 HP12        18.3925    12.9700    33.5605 H            1 CB3300   0.0000
    55 HP3         19.4832    16.8225    34.5100 H            1 CB3300   0.0000
    56 H21         13.4938    20.0486    33.7171 H            1 CB3300   0.0000
@<TRIPOS>BOND
     1    1    2       2
     2    1   12       1
     3    2    3       1
     4    2    4       1
     5    4    5       1
     6    5    6       2
     7    5    7       1
     8    7    8      ar
     9    7   12      ar
    10    8    9      ar
    11    9   10      ar
    12    9   13       1
    13   10   11      ar
    14   11   12      ar
    15   13   14       1
    16   14   18       1
    17   14   33       1
    18   15   16      ar
    19   15   20      ar
    20   15   21       1
    21   16   17      ar
    22   17   18      ar
    23   18   19      ar
    24   19   20      ar
    25   21   22       2
    26   21   23      am
    27   23   24       1
    28   24   25       1
    29   24   30       1
    30   25   26       1
    31   26   27       1
    32   27   28      ar
    33   27   29      ar
    34   30   31      ar
    35   30   32      ar
    36   33   34       1
    37   34   35       3
    38   35   55       1
    39    3   36       1
    40    3   37       1
    41    8   38       1
    42   10   39       1
    43   11   40       1
    44   13   41       1
    45   13   42       1
    46   16   43       1
    47   17   44       1
    48   19   45       1
    49   20   46       1
    50   23   47       1
    51   24   48       1
    52   25   49       1
    53   25   50       1
    54   26   51       1
    55   26   52       1
    56    4   56       1
    57   33   54       1
    58   33   53       1
@<TRIPOS>SUBSTRUCTURE
     1 CB3300      1 GROUP             4 A     CB3     0 **** CB3 A 300
