#    Name: 27800
#    Modification time : Wed Aug  9 01:13:12 2017

@<TRIPOS>MOLECULE
27800
   27     0     3     0     0
SMALL
NO_CHARGES


@<TRIPOS>ATOM
      1 CA         10.1190    3.8720   17.3080 C.3       1 GLL5        0.0000 
      2 CA         11.1390    3.5890   18.4060 C.3       1 GLL5        0.0000 
      3 CA         13.7030   10.5580   15.0310 C.3       1 GLL5        0.0000 
      4 CA         15.9060   12.2980   15.6160 C.3       1 GLL5        0.0000 
      5 CA         19.2780   14.5330   15.4040 C.3       1 GLL5        0.0000 
      6 CA         21.0030   12.1680   12.8850 C.3       1 GLL5        0.0000 
      7 CA         22.2500   12.7800   12.6690 C.3       1 GLL5        0.0000 
      8 CA          7.7450    3.5050   13.7790 C.3       2 GLP5        0.0000 
      9 CA          9.6280    6.5150   21.0000 C.3       2 GLP5        0.0000 
     10 CA         10.8100    3.3480   22.7890 C.3       2 GLP5        0.0000 
     11 CA         13.1450    9.6920   11.7880 C.3       2 GLP5        0.0000 
     12 CA         16.4560   10.1420   11.9130 C.3       2 GLP5        0.0000 
     13 CA         14.4480   14.5820   13.0630 C.3       2 GLP5        0.0000 
     14 CA         15.8950   15.0240   12.9000 C.3       2 GLP5        0.0000 
     15 CA         12.3430    3.1620   14.3080 C.3       2 GLP5        0.0000 
     16 CA         19.4530   11.0170    9.7420 C.3       2 GLP5        0.0000 
     17 CA         21.3000   14.4400    9.8460 C.3       2 GLP5        0.0000 
     18 CA          8.9320    3.6885   15.5435 C.3       3 GLC5        0.0000 
     19 CA         10.3835    5.0520   19.7030 C.3       3 GLC5        0.0000 
     20 CA         10.9745    3.4685   20.5975 C.3       3 GLC5        0.0000 
     21 CA         13.4240   10.1250   13.4095 C.3       3 GLC5        0.0000 
     22 CA         15.0795   10.3500   13.4720 C.3       3 GLC5        0.0000 
     23 CA         15.1770   13.4400   14.3395 C.3       3 GLC5        0.0000 
     24 CA         17.5865   14.7785   14.1520 C.3       3 GLC5        0.0000 
     25 CA         11.4860    3.4463   16.0825 C.3       3 GLC5        0.0000 
     26 CA         20.4258   11.8187   11.3688 C.3       3 GLC5        0.0000 
     27 CA         21.5535   13.7596   11.4737 C.3       3 GLC5        0.0000 
@<TRIPOS>BOND
@<TRIPOS>SUBSTRUCTURE
     1 GLL5        1 GROUP        1 Z    GLL  0     ROOT GLL Z 4
     2 GLP5        8 GROUP        1 Z    GLP  0     **** GLP Z 11
     3 GLC5       18 GROUP        1 Z    GLC  0     **** GLC Z 18
@<TRIPOS>SET

