3ipy_B87_1_ligand
  -OEChem-08111718373D

 55 59  0     1  0  0  0  0  0999 V2000
   22.8978   12.3468   12.0424 H   0  0  0  0  0  0  0  0  0  0  0  0
   23.5142   14.3808   13.1161 H   0  0  0  0  0  0  0  0  0  0  0  0
   20.7722   11.3167   12.4137 H   0  0  0  0  0  0  0  0  0  0  0  0
   21.9942   15.4671   14.6478 H   0  0  0  0  0  0  0  0  0  0  0  0
   18.3167   11.4745   13.7867 H   0  0  0  0  0  0  0  0  0  0  0  0
   16.0748   11.5098   15.0242 H   0  0  0  0  0  0  0  0  0  0  0  0
   15.2751   15.2488   17.8022 H   0  0  0  0  0  0  0  0  0  0  0  0
   10.2593    3.2444   16.5422 H   0  0  0  0  0  0  0  0  0  0  0  0
    9.1922    3.7590   17.6661 H   0  0  0  0  0  0  0  0  0  0  0  0
   11.6285    2.7405   18.2047 H   0  0  0  0  0  0  0  0  0  0  0  0
   10.6747    3.5048   19.2877 H   0  0  0  0  0  0  0  0  0  0  0  0
    9.5540    5.8820   17.1200 H   0  0  0  0  0  0  0  0  0  0  0  0
   10.4365    5.3483   15.8539 H   0  0  0  0  0  0  0  0  0  0  0  0
   12.1803    5.1322   19.3696 H   0  0  0  0  0  0  0  0  0  0  0  0
   13.0257    4.4639   18.1427 H   0  0  0  0  0  0  0  0  0  0  0  0
   12.9608   10.7872   14.4013 H   0  0  0  0  0  0  0  0  0  0  0  0
   14.5782   10.6189   14.5510 H   0  0  0  0  0  0  0  0  0  0  0  0
   12.1990   12.2754   17.2476 H   0  0  0  0  0  0  0  0  0  0  0  0
   13.0597   11.1491   18.0584 H   0  0  0  0  0  0  0  0  0  0  0  0
   13.5253    8.4849   14.8500 H   0  0  0  0  0  0  0  0  0  0  0  0
   14.2282    8.9456   16.2502 H   0  0  0  0  0  0  0  0  0  0  0  0
   11.0941   10.0707   17.6634 H   0  0  0  0  0  0  0  0  0  0  0  0
   10.9455   10.7105   16.1683 H   0  0  0  0  0  0  0  0  0  0  0  0
   10.5347    8.0533   16.6339 H   0  0  0  0  0  0  0  0  0  0  0  0
   11.4624    7.4361   15.4402 H   0  0  0  0  0  0  0  0  0  0  0  0
   22.2500   12.7800   12.6690 C   0  0  0  0  0  0  0  0  0  0  0  0
   22.6180   13.9780   13.3020 C   0  0  0  0  0  0  0  0  0  0  0  0
   21.0030   12.1680   12.8850 C   0  0  0  0  0  0  0  0  0  0  0  0
   21.7440   14.6140   14.1900 C   0  0  0  0  0  0  0  0  0  0  0  0
   18.7620   12.3010   14.1310 C   0  0  0  0  0  0  0  0  0  0  0  0
   15.9060   12.2980   15.6160 C   0  0  0  0  0  0  0  0  0  0  0  0
   15.4440   14.4550   17.2180 C   0  0  0  0  0  0  0  0  0  0  0  0
   20.0910   12.7540   13.7590 C   0  0  0  0  0  0  0  0  0  0  0  0
   20.5110   14.0070   14.4080 C   0  0  0  0  0  0  0  0  0  0  0  0
   16.8790   13.2890   15.7710 C   0  0  0  0  0  0  0  0  0  0  0  0
   18.1980   13.2040   15.0500 C   0  0  0  0  0  0  0  0  0  0  0  0
   14.6950   12.4240   16.2990 C   0  0  0  0  0  0  0  0  0  0  0  0
   12.1220    6.9230   17.3350 C   0  0  0  0  0  0  0  0  0  0  0  0
   10.1190    3.8720   17.3080 C   0  0  1  0  0  0  0  0  0  0  0  0
   11.1390    3.5890   18.4060 C   0  0  2  0  0  0  0  0  0  0  0  0
   10.3260    5.3080   16.8470 C   0  0  2  0  0  0  0  0  0  0  0  0
   12.1180    4.7540   18.4460 C   0  0  1  0  0  0  0  0  0  0  0  0
   13.7030   10.5580   15.0310 C   0  0  2  0  0  0  0  0  0  0  0  0
   12.6450   11.3830   17.1790 C   0  0  1  0  0  0  0  0  0  0  0  0
   13.5050    9.1550   15.5920 C   0  0  1  0  0  0  0  0  0  0  0  0
   11.5870   10.3240   16.8310 C   0  0  1  0  0  0  0  0  0  0  0  0
   11.4730    7.8680   16.3420 C   0  0  2  0  0  0  0  0  0  0  0  0
   16.6160   14.3460   16.5760 N   0  0  0  0  0  0  0  0  0  0  0  0
   14.4920   13.5140   17.0890 N   0  0  0  0  0  0  0  0  0  0  0  0
   13.6910   11.4560   16.1700 N   0  0  0  0  0  0  0  0  0  0  0  0
   11.5540    5.7350   17.5230 N   0  0  0  0  0  0  0  0  0  0  0  0
   12.2000    9.1250   16.2570 N   0  3  1  0  0  0  0  0  0  0  0  0
   13.1290    7.2600   17.9420 O   0  0  0  0  0  0  0  0  0  0  0  0
   19.2780   14.5330   15.4040 S   0  0  0  0  0  0  0  0  0  0  0  0
   12.6458    8.9303   17.1307 H   0  0  0  0  0  0  0  0  0  0  0  0
  1 26  1  0  0  0  0
  2 27  1  0  0  0  0
  3 28  1  0  0  0  0
  4 29  1  0  0  0  0
  5 30  1  0  0  0  0
  6 31  1  0  0  0  0
  7 32  1  0  0  0  0
  8 39  1  0  0  0  0
  9 39  1  0  0  0  0
 10 40  1  0  0  0  0
 11 40  1  0  0  0  0
 12 41  1  0  0  0  0
 13 41  1  0  0  0  0
 14 42  1  0  0  0  0
 15 42  1  0  0  0  0
 16 43  1  0  0  0  0
 17 43  1  0  0  0  0
 18 44  1  0  0  0  0
 19 44  1  0  0  0  0
 20 45  1  0  0  0  0
 21 45  1  0  0  0  0
 22 46  1  0  0  0  0
 23 46  1  0  0  0  0
 24 47  1  0  0  0  0
 25 47  1  0  0  0  0
 26 27  1  0  0  0  0
 26 28  2  0  0  0  0
 27 29  2  0  0  0  0
 28 33  1  0  0  0  0
 29 34  1  0  0  0  0
 30 33  1  0  0  0  0
 30 36  2  0  0  0  0
 31 35  1  0  0  0  0
 31 37  2  0  0  0  0
 32 48  1  0  0  0  0
 32 49  2  0  0  0  0
 33 34  2  0  0  0  0
 34 54  1  0  0  0  0
 35 36  1  0  0  0  0
 35 48  2  0  0  0  0
 36 54  1  0  0  0  0
 37 49  1  0  0  0  0
 37 50  1  0  0  0  0
 38 47  1  0  0  0  0
 38 51  1  0  0  0  0
 38 53  2  0  0  0  0
 39 40  1  0  0  0  0
 39 41  1  0  0  0  0
 40 42  1  0  0  0  0
 41 51  1  0  0  0  0
 42 51  1  0  0  0  0
 43 45  1  0  0  0  0
 43 50  1  0  0  0  0
 44 46  1  0  0  0  0
 44 50  1  0  0  0  0
 45 52  1  0  0  0  0
 46 52  1  0  0  0  0
 47 52  1  0  0  0  0
 52 55  1  0  0  0  0
M  CHG  1  52   1
M  END
> <scpdb_id>
3ipy_1

$$$$
