@<TRIPOS>MOLECULE
3ipy_B87_1_ligand
   55    59     1     0     0
SMALL
NO_CHARGES


@<TRIPOS>ATOM
     1 C1          10.1190     3.8720    17.3080 C.3          1 B87263   0.0000
     2 C2          10.3260     5.3080    16.8470 C.3          1 B87263   0.0000
     3 N3          11.5540     5.7350    17.5230 N.am         1 B87263   0.0000
     4 C4          12.1180     4.7540    18.4460 C.3          1 B87263   0.0000
     5 C5          11.1390     3.5890    18.4060 C.3          1 B87263   0.0000
     6 C6          12.1220     6.9230    17.3350 C.2          1 B87263   0.0000
     7 O7          13.1290     7.2600    17.9420 O.2          1 B87263   0.0000
     8 C8          11.4730     7.8680    16.3420 C.3          1 B87263   0.0000
     9 N9          12.2000     9.1250    16.2570 N.4          1 B87263   1.0000
    10 C10         13.5050     9.1550    15.5920 C.3          1 B87263   0.0000
    11 C11         13.7030    10.5580    15.0310 C.3          1 B87263   0.0000
    12 N12         13.6910    11.4560    16.1700 N.pl3        1 B87263   0.0000
    13 C13         12.6450    11.3830    17.1790 C.3          1 B87263   0.0000
    14 C14         11.5870    10.3240    16.8310 C.3          1 B87263   0.0000
    15 C15         14.6950    12.4240    16.2990 C.ar         1 B87263   0.0000
    16 C16         15.9060    12.2980    15.6160 C.ar         1 B87263   0.0000
    17 C17         16.8790    13.2890    15.7710 C.ar         1 B87263   0.0000
    18 N18         16.6160    14.3460    16.5760 N.ar         1 B87263   0.0000
    19 C19         15.4440    14.4550    17.2180 C.ar         1 B87263   0.0000
    20 N20         14.4920    13.5140    17.0890 N.ar         1 B87263   0.0000
    21 C21         18.1980    13.2040    15.0500 C.2          1 B87263   0.0000
    22 S22         19.2780    14.5330    15.4040 S.3          1 B87263   0.0000
    23 C23         20.5110    14.0070    14.4080 C.ar         1 B87263   0.0000
    24 C24         20.0910    12.7540    13.7590 C.ar         1 B87263   0.0000
    25 C25         18.7620    12.3010    14.1310 C.2          1 B87263   0.0000
    26 C26         21.7440    14.6140    14.1900 C.ar         1 B87263   0.0000
    27 C27         22.6180    13.9780    13.3020 C.ar         1 B87263   0.0000
    28 C28         22.2500    12.7800    12.6690 C.ar         1 B87263   0.0000
    29 C29         21.0030    12.1680    12.8850 C.ar         1 B87263   0.0000
    30 H1          10.2593     3.2444    16.5422 H            1 B87263   0.0000
    31 H2           9.1922     3.7590    17.6661 H            1 B87263   0.0000
    32 H3           9.5540     5.8820    17.1200 H            1 B87263   0.0000
    33 H4          10.4365     5.3483    15.8539 H            1 B87263   0.0000
    34 H5          12.1803     5.1322    19.3696 H            1 B87263   0.0000
    35 H6          13.0257     4.4639    18.1427 H            1 B87263   0.0000
    36 H7          11.6285     2.7405    18.2047 H            1 B87263   0.0000
    37 H8          10.6747     3.5048    19.2877 H            1 B87263   0.0000
    38 H9          10.5347     8.0533    16.6339 H            1 B87263   0.0000
    39 H10         11.4624     7.4361    15.4402 H            1 B87263   0.0000
    40 H11         13.5253     8.4849    14.8500 H            1 B87263   0.0000
    41 H12         14.2282     8.9456    16.2502 H            1 B87263   0.0000
    42 H13         12.9608    10.7872    14.4013 H            1 B87263   0.0000
    43 H14         14.5782    10.6189    14.5510 H            1 B87263   0.0000
    44 H15         12.1990    12.2754    17.2476 H            1 B87263   0.0000
    45 H16         13.0597    11.1491    18.0584 H            1 B87263   0.0000
    46 H17         11.0941    10.0707    17.6634 H            1 B87263   0.0000
    47 H18         10.9455    10.7105    16.1683 H            1 B87263   0.0000
    48 H19         16.0748    11.5098    15.0242 H            1 B87263   0.0000
    49 H20         15.2751    15.2488    17.8022 H            1 B87263   0.0000
    50 H21         18.3167    11.4745    13.7867 H            1 B87263   0.0000
    51 H22         21.9942    15.4671    14.6478 H            1 B87263   0.0000
    52 H23         23.5142    14.3808    13.1161 H            1 B87263   0.0000
    53 H24         22.8978    12.3468    12.0424 H            1 B87263   0.0000
    54 H25         20.7722    11.3167    12.4137 H            1 B87263   0.0000
    55 H26         12.6458     8.9303    17.1307 H            1 B87263   0.0000
@<TRIPOS>BOND
     1    1    2       1
     2    1    5       1
     3    2    3       1
     4    3    4       1
     5    3    6      am
     6    4    5       1
     7    6    7       2
     8    6    8       1
     9    8    9       1
    10    9   10       1
    11    9   14       1
    12   10   11       1
    13   11   12       1
    14   12   13       1
    15   12   15       1
    16   13   14       1
    17   15   16      ar
    18   15   20      ar
    19   16   17      ar
    20   17   18      ar
    21   17   21       1
    22   18   19      ar
    23   19   20      ar
    24   21   22       1
    25   21   25       2
    26   22   23       1
    27   23   24      ar
    28   23   26      ar
    29   24   25       1
    30   24   29      ar
    31   26   27      ar
    32   27   28      ar
    33   28   29      ar
    34    1   30       1
    35    1   31       1
    36    2   32       1
    37    2   33       1
    38    4   34       1
    39    4   35       1
    40    5   36       1
    41    5   37       1
    42    8   38       1
    43    8   39       1
    44   10   40       1
    45   10   41       1
    46   11   42       1
    47   11   43       1
    48   13   44       1
    49   13   45       1
    50   14   46       1
    51   14   47       1
    52   16   48       1
    53   19   49       1
    54   25   50       1
    55   26   51       1
    56   27   52       1
    57   28   53       1
    58   29   54       1
    59    9   55       1
@<TRIPOS>SUBSTRUCTURE
     1 B87263      1 GROUP             4 A     B87     0 **** B87 A 263
