#    Name: 10231
#    Modification time : Tue Aug  8 20:27:49 2017

@<TRIPOS>MOLECULE
10231
   28     0     3     0     0
SMALL
NO_CHARGES


@<TRIPOS>ATOM
      1 CA          7.6910   -2.3280   13.8730 C.3       1 GLL5        0.0000 
      2 CA          7.4130   -6.2230   11.6800 C.3       1 GLL5        0.0000 
      3 CA         13.3030   -4.3390   11.0570 C.3       1 GLL5        0.0000 
      4 CA         12.1450   -5.7320   10.3210 C.3       1 GLL5        0.0000 
      5 CA         11.2960   -3.0620   12.4890 C.3       1 GLL5        0.0000 
      6 CA          4.9090   -5.5570   15.5430 C.3       1 GLL5        0.0000 
      7 CA         12.9650   -6.0040   12.0570 C.3       1 GLL5        0.0000 
      8 CA          5.0780    0.6890   11.9930 C.3       2 GLP5        0.0000 
      9 CA         10.7010   -8.7890   11.6800 C.3       2 GLP5        0.0000 
     10 CA         14.9340   -0.8430    9.9650 C.3       2 GLP5        0.0000 
     11 CA         17.5760   -3.5160   10.8610 C.3       2 GLP5        0.0000 
     12 CA         10.9420   -8.8870    7.6330 C.3       2 GLP5        0.0000 
     13 CA         12.9250   -0.1080   13.7810 C.3       2 GLP5        0.0000 
     14 CA          6.1720   -8.4440   17.2910 C.3       2 GLP5        0.0000 
     15 CA         15.3880   -6.0370    7.6140 C.3       2 GLP5        0.0000 
     16 CA         16.2600   -5.4210   11.5550 C.3       2 GLP5        0.0000 
     17 CA         14.4110   -8.9930   11.2630 C.3       2 GLP5        0.0000 
     18 CA          6.3845   -0.8195   12.9330 C.3       3 GLC5        0.0000 
     19 CA          9.0570   -7.5060   11.6800 C.3       3 GLC5        0.0000 
     20 CA         14.1185   -2.5910   10.5110 C.3       3 GLC5        0.0000 
     21 CA         15.4395   -3.9275   10.9590 C.3       3 GLC5        0.0000 
     22 CA         11.5435   -7.3095    8.9770 C.3       3 GLC5        0.0000 
     23 CA         11.8385   -1.4280   13.2788 C.3       3 GLC5        0.0000 
     24 CA          5.7595   -7.0953   16.1630 C.3       3 GLC5        0.0000 
     25 CA         14.0560   -5.5363    9.1515 C.3       3 GLC5        0.0000 
     26 CA         14.3610   -5.4518   11.4257 C.3       3 GLC5        0.0000 
     27 CA         13.4365   -7.2378   11.2797 C.3       3 GLC5        0.0000 
     28 CA         11.3125   -7.1097   11.5295 C.3       3 GLC5        0.0000 
@<TRIPOS>BOND
@<TRIPOS>SUBSTRUCTURE
     1 GLL5        1 GROUP        1 Z    GLL  0     ROOT GLL Z 4
     2 GLP5        8 GROUP        1 Z    GLP  0     **** GLP Z 11
     3 GLC5       18 GROUP        1 Z    GLC  0     **** GLC Z 18
@<TRIPOS>SET

