1wrk_TFP_3_ligand
  -OEChem-08111718373D

 53 56  0     1  0  0  0  0  0999 V2000
    4.2854   -6.2346   15.9329 H   0  0  0  0  0  0  0  0  0  0  0  0
    4.2500   -4.0045   16.7538 H   0  0  0  0  0  0  0  0  0  0  0  0
   12.1569   -2.5644   12.3826 H   0  0  0  0  0  0  0  0  0  0  0  0
    5.7822   -6.8807   14.1991 H   0  0  0  0  0  0  0  0  0  0  0  0
    5.7099   -2.3470   15.8635 H   0  0  0  0  0  0  0  0  0  0  0  0
   10.2820   -1.4896   13.3843 H   0  0  0  0  0  0  0  0  0  0  0  0
   10.0010   -6.0546   11.8438 H   0  0  0  0  0  0  0  0  0  0  0  0
    1.4443   -8.9257    9.3199 H   0  0  0  0  0  0  0  0  0  0  0  0
    1.6999   -9.1754   10.9133 H   0  0  0  0  0  0  0  0  0  0  0  0
    4.3323  -11.5444   10.4787 H   0  0  0  0  0  0  0  0  0  0  0  0
    3.4100  -10.8361   11.6252 H   0  0  0  0  0  0  0  0  0  0  0  0
    3.5774   -7.8977    9.1296 H   0  0  0  0  0  0  0  0  0  0  0  0
    2.6861   -7.1156   10.2523 H   0  0  0  0  0  0  0  0  0  0  0  0
    5.4809   -9.7358   11.6288 H   0  0  0  0  0  0  0  0  0  0  0  0
    5.4170   -9.5225   10.0110 H   0  0  0  0  0  0  0  0  0  0  0  0
    2.2596  -12.3114    9.4137 H   0  0  0  0  0  0  0  0  0  0  0  0
    1.3322  -11.5161   10.4972 H   0  0  0  0  0  0  0  0  0  0  0  0
    1.1565  -11.2222    8.9005 H   0  0  0  0  0  0  0  0  0  0  0  0
    6.0200   -7.2254   12.8369 H   0  0  0  0  0  0  0  0  0  0  0  0
    6.8266   -8.2037   11.8078 H   0  0  0  0  0  0  0  0  0  0  0  0
    8.2819   -6.6653   11.4576 H   0  0  0  0  0  0  0  0  0  0  0  0
    7.1074   -5.6773   10.8997 H   0  0  0  0  0  0  0  0  0  0  0  0
    5.6286   -7.2594    9.9810 H   0  0  0  0  0  0  0  0  0  0  0  0
    4.8128   -6.2978   11.0184 H   0  0  0  0  0  0  0  0  0  0  0  0
    4.9090   -5.5570   15.5430 C   0  0  0  0  0  0  0  0  0  0  0  0
    4.8880   -4.2500   16.0240 C   0  0  0  0  0  0  0  0  0  0  0  0
   11.2960   -3.0620   12.4890 C   0  0  0  0  0  0  0  0  0  0  0  0
    5.7850   -5.9360   14.5270 C   0  0  0  0  0  0  0  0  0  0  0  0
    5.7410   -3.2800   15.5050 C   0  0  0  0  0  0  0  0  0  0  0  0
   10.2080   -2.4340   13.0640 C   0  0  0  0  0  0  0  0  0  0  0  0
   10.0380   -5.1100   12.1700 C   0  0  0  0  0  0  0  0  0  0  0  0
   11.2030   -4.3870   12.0550 C   0  0  0  0  0  0  0  0  0  0  0  0
    6.6970   -4.9800   13.9420 C   0  0  0  0  0  0  0  0  0  0  0  0
    8.8870   -4.5130   12.7530 C   0  0  0  0  0  0  0  0  0  0  0  0
    6.6560   -3.6090   14.4680 C   0  0  0  0  0  0  0  0  0  0  0  0
    8.9860   -3.1400   13.1960 C   0  0  0  0  0  0  0  0  0  0  0  0
    2.1380   -9.1070   10.0170 C   0  0  2  0  0  0  0  0  0  0  0  0
    3.8580  -10.7040   10.7410 C   0  0  1  0  0  0  0  0  0  0  0  0
    3.1530   -7.9720   10.0320 C   0  0  1  0  0  0  0  0  0  0  0  0
    4.8770   -9.5570   10.8520 C   0  0  1  0  0  0  0  0  0  0  0  0
    1.8120  -11.4420    9.6230 C   0  0  0  0  0  0  0  0  0  0  0  0
    6.3880   -7.3110   11.9110 C   0  0  2  0  0  0  0  0  0  0  0  0
    7.4130   -6.2230   11.6800 C   0  0  1  0  0  0  0  0  0  0  0  0
    5.2450   -7.1920   10.9020 C   0  0  2  0  0  0  0  0  0  0  0  0
   12.3690   -5.0970   11.4040 C   0  0  2  0  0  0  0  0  0  0  0  0
    7.6630   -5.2640   12.8520 N   0  0  0  0  0  0  0  0  0  0  0  0
    2.8280  -10.3730    9.7080 N   0  0  1  0  0  0  0  0  0  0  0  0
    4.2110   -8.2320   11.0530 N   0  3  1  0  0  0  0  0  0  0  0  0
   13.3030   -4.3390   11.0570 F   0  0  0  0  0  0  0  0  0  0  0  0
   12.1450   -5.7320   10.3210 F   0  0  0  0  0  0  0  0  0  0  0  0
   12.9650   -6.0040   12.0570 F   0  0  0  0  0  0  0  0  0  0  0  0
    7.6910   -2.3280   13.8730 S   0  0  0  0  0  0  0  0  0  0  0  0
    3.8139   -8.1896   11.9698 H   0  0  0  0  0  0  0  0  0  0  0  0
  1 25  1  0  0  0  0
  2 26  1  0  0  0  0
  3 27  1  0  0  0  0
  4 28  1  0  0  0  0
  5 29  1  0  0  0  0
  6 30  1  0  0  0  0
  7 31  1  0  0  0  0
  8 37  1  0  0  0  0
  9 37  1  0  0  0  0
 10 38  1  0  0  0  0
 11 38  1  0  0  0  0
 12 39  1  0  0  0  0
 13 39  1  0  0  0  0
 14 40  1  0  0  0  0
 15 40  1  0  0  0  0
 16 41  1  0  0  0  0
 17 41  1  0  0  0  0
 18 41  1  0  0  0  0
 19 42  1  0  0  0  0
 20 42  1  0  0  0  0
 21 43  1  0  0  0  0
 22 43  1  0  0  0  0
 23 44  1  0  0  0  0
 24 44  1  0  0  0  0
 25 26  2  0  0  0  0
 25 28  1  0  0  0  0
 26 29  1  0  0  0  0
 27 30  1  0  0  0  0
 27 32  2  0  0  0  0
 28 33  2  0  0  0  0
 29 35  2  0  0  0  0
 30 36  2  0  0  0  0
 31 32  1  0  0  0  0
 31 34  2  0  0  0  0
 32 45  1  0  0  0  0
 33 35  1  0  0  0  0
 33 46  1  0  0  0  0
 34 36  1  0  0  0  0
 34 46  1  0  0  0  0
 35 52  1  0  0  0  0
 36 52  1  0  0  0  0
 37 39  1  0  0  0  0
 37 47  1  0  0  0  0
 38 40  1  0  0  0  0
 38 47  1  0  0  0  0
 39 48  1  0  0  0  0
 40 48  1  0  0  0  0
 41 47  1  0  0  0  0
 42 43  1  0  0  0  0
 42 44  1  0  0  0  0
 43 46  1  0  0  0  0
 44 48  1  0  0  0  0
 45 49  1  0  0  0  0
 45 50  1  0  0  0  0
 45 51  1  0  0  0  0
 48 53  1  0  0  0  0
M  CHG  1  48   1
M  END
> <scpdb_id>
1wrk_3

$$$$
