@<TRIPOS>MOLECULE
1wrk_TFP_3_ligand
   54    57     1     0     0
SMALL
NO_CHARGES


@<TRIPOS>ATOM
     1 C1          11.2030    -4.3870    12.0550 C.ar         1 TFP203   0.0000
     2 C2          11.2960    -3.0620    12.4890 C.ar         1 TFP203   0.0000
     3 C3          10.2080    -2.4340    13.0640 C.ar         1 TFP203   0.0000
     4 C4           8.9860    -3.1400    13.1960 C.ar         1 TFP203   0.0000
     5 C5           8.8870    -4.5130    12.7530 C.ar         1 TFP203   0.0000
     6 C6          10.0380    -5.1100    12.1700 C.ar         1 TFP203   0.0000
     7 S            7.6910    -2.3280    13.8730 S.3          1 TFP203   0.0000
     8 C7           6.6560    -3.6090    14.4680 C.ar         1 TFP203   0.0000
     9 C8           5.7410    -3.2800    15.5050 C.ar         1 TFP203   0.0000
    10 C9           4.8880    -4.2500    16.0240 C.ar         1 TFP203   0.0000
    11 C10          4.9090    -5.5570    15.5430 C.ar         1 TFP203   0.0000
    12 C11          5.7850    -5.9360    14.5270 C.ar         1 TFP203   0.0000
    13 C12          6.6970    -4.9800    13.9420 C.ar         1 TFP203   0.0000
    14 N1           7.6630    -5.2640    12.8520 N.pl3        1 TFP203   0.0000
    15 C13          7.4130    -6.2230    11.6800 C.3          1 TFP203   0.0000
    16 C14          6.3880    -7.3110    11.9110 C.3          1 TFP203   0.0000
    17 C15          5.2450    -7.1920    10.9020 C.3          1 TFP203   0.0000
    18 N2           4.2110    -8.2320    11.0530 N.4          1 TFP203   1.0000
    19 C16          3.1530    -7.9720    10.0320 C.3          1 TFP203   0.0000
    20 C17          2.1380    -9.1070    10.0170 C.3          1 TFP203   0.0000
    21 N3           2.8280   -10.3730     9.7080 N.4          1 TFP203   1.0000
    22 C18          3.8580   -10.7040    10.7410 C.3          1 TFP203   0.0000
    23 C19          4.8770    -9.5570    10.8520 C.3          1 TFP203   0.0000
    24 C20          1.8120   -11.4420     9.6230 C.3          1 TFP203   0.0000
    25 C21         12.3690    -5.0970    11.4040 C.3          1 TFP203   0.0000
    26 F1          13.3030    -4.3390    11.0570 F            1 TFP203   0.0000
    27 F2          12.1450    -5.7320    10.3210 F            1 TFP203   0.0000
    28 F3          12.9650    -6.0040    12.0570 F            1 TFP203   0.0000
    29 H1          12.1569    -2.5644    12.3826 H            1 TFP203   0.0000
    30 H2          10.2820    -1.4896    13.3843 H            1 TFP203   0.0000
    31 H3          10.0010    -6.0546    11.8438 H            1 TFP203   0.0000
    32 H4           5.7099    -2.3470    15.8635 H            1 TFP203   0.0000
    33 H5           4.2500    -4.0045    16.7538 H            1 TFP203   0.0000
    34 H6           4.2854    -6.2346    15.9329 H            1 TFP203   0.0000
    35 H7           5.7822    -6.8807    14.1991 H            1 TFP203   0.0000
    36 H8           8.2819    -6.6653    11.4576 H            1 TFP203   0.0000
    37 H9           7.1074    -5.6773    10.8997 H            1 TFP203   0.0000
    38 H10          6.0200    -7.2254    12.8369 H            1 TFP203   0.0000
    39 H11          6.8266    -8.2037    11.8078 H            1 TFP203   0.0000
    40 H12          5.6286    -7.2594     9.9810 H            1 TFP203   0.0000
    41 H13          4.8128    -6.2978    11.0184 H            1 TFP203   0.0000
    42 H14          3.5774    -7.8977     9.1296 H            1 TFP203   0.0000
    43 H15          2.6861    -7.1156    10.2523 H            1 TFP203   0.0000
    44 H16          1.4443    -8.9257     9.3199 H            1 TFP203   0.0000
    45 H17          1.6999    -9.1754    10.9133 H            1 TFP203   0.0000
    46 H18          4.3323   -11.5444    10.4787 H            1 TFP203   0.0000
    47 H19          3.4100   -10.8361    11.6252 H            1 TFP203   0.0000
    48 H20          5.4809    -9.7358    11.6288 H            1 TFP203   0.0000
    49 H21          5.4170    -9.5225    10.0110 H            1 TFP203   0.0000
    50 H22          2.2596   -12.3114     9.4137 H            1 TFP203   0.0000
    51 H23          1.3322   -11.5161    10.4972 H            1 TFP203   0.0000
    52 H24          1.1565   -11.2222     8.9005 H            1 TFP203   0.0000
    53 H25          3.8156    -8.1867    11.9704 H            1 TFP203   0.0000
    54 H26          3.2790   -10.2857     8.8197 H            1 TFP203   0.0000
@<TRIPOS>BOND
     1    1    2      ar
     2    1    6      ar
     3    1   25       1
     4    2    3      ar
     5    3    4      ar
     6    4    5      ar
     7    4    7       1
     8    5    6      ar
     9    5   14       1
    10    7    8       1
    11    8    9      ar
    12    8   13      ar
    13    9   10      ar
    14   10   11      ar
    15   11   12      ar
    16   12   13      ar
    17   13   14       1
    18   14   15       1
    19   15   16       1
    20   16   17       1
    21   17   18       1
    22   18   19       1
    23   18   23       1
    24   19   20       1
    25   20   21       1
    26   21   22       1
    27   21   24       1
    28   22   23       1
    29   25   26       1
    30   25   27       1
    31   25   28       1
    32    2   29       1
    33    3   30       1
    34    6   31       1
    35    9   32       1
    36   10   33       1
    37   11   34       1
    38   12   35       1
    39   15   36       1
    40   15   37       1
    41   16   38       1
    42   16   39       1
    43   17   40       1
    44   17   41       1
    45   19   42       1
    46   19   43       1
    47   20   44       1
    48   20   45       1
    49   22   46       1
    50   22   47       1
    51   23   48       1
    52   23   49       1
    53   24   50       1
    54   24   51       1
    55   24   52       1
    56   18   53       1
    57   21   54       1
@<TRIPOS>SUBSTRUCTURE
     1 TFP203      1 GROUP             4 B     TFP     0 **** TFP B 203
