#    Name: 17611
#    Modification time : Tue Aug  8 19:59:19 2017

@<TRIPOS>MOLECULE
17611
   67     0     9     0     0
SMALL
NO_CHARGES


@<TRIPOS>ATOM
      1 N          58.0170   -1.7290    4.3080 N.am      1 SEL1        0.0000 
      2 O          58.0170   -1.7290    4.3080 O.2       2 ALL2        0.0000 
      3 CA         53.5740    6.4490    4.9260 C.3       3 GLL5        0.0000 
      4 CA         51.4750    4.9470    4.4970 C.3       3 GLL5        0.0000 
      5 CA         51.6810    2.3810    4.2450 C.3       3 GLL5        0.0000 
      6 CA         52.6060    1.2580    3.7400 C.3       3 GLL5        0.0000 
      7 CA         54.0030    1.2540    4.4560 C.3       3 GLL5        0.0000 
      8 CA         54.6800    2.6510    4.2500 C.3       3 GLL5        0.0000 
      9 CA         57.0230    1.4790    4.4970 C.3       3 GLL5        0.0000 
     10 CA         54.4540   -1.3130    4.0170 C.3       3 GLL5        0.0000 
     11 CA         55.7210   -2.1030    3.6440 C.3       3 GLL5        0.0000 
     12 CA         56.2500   -0.3260    6.1200 C.3       3 GLL5        0.0000 
     13 CA         53.5830    3.6850    6.3450 C.3       3 GLL5        0.0000 
     14 CA         52.3640    3.7660    4.0300 C.3       3 GLL5        0.0000 
     15 CA         56.8810   -1.0740    3.7420 C.3       3 GLL5        0.0000 
     16 N          58.0030   -3.0060    6.7400 N.am      4 SEP1        0.0000 
     17 O          59.7850    0.2220    4.0080 O.2       5 ALP2        0.0000 
     18 CA         55.2710   10.1260    6.1610 C.3       6 GLP5        0.0000 
     19 CA         51.6820    6.3540    8.4880 C.3       6 GLP5        0.0000 
     20 CA         48.0910    7.1920    3.7200 C.3       6 GLP5        0.0000 
     21 CA         51.1940    5.0550    0.6640 C.3       6 GLP5        0.0000 
     22 CA         48.7920    2.3590    7.1270 C.3       6 GLP5        0.0000 
     23 CA         47.7910    1.1140    3.1730 C.3       6 GLP5        0.0000 
     24 CA         51.3940   -1.5600    0.6160 C.3       6 GLP5        0.0000 
     25 CA         52.3390    0.3440    8.4660 C.3       6 GLP5        0.0000 
     26 CA         56.7410    2.5180    0.4380 C.3       6 GLP5        0.0000 
     27 CA         52.7160   -2.7460    0.3370 C.3       6 GLP5        0.0000 
     28 CA         50.4160   -2.5240    4.4040 C.3       6 GLP5        0.0000 
     29 CA         54.7250   -5.6750    2.6790 C.3       6 GLP5        0.0000 
     30 CA         56.2770    1.0050   10.1080 C.3       6 GLP5        0.0000 
     31 CA         53.6360   -0.9360    8.7380 C.3       6 GLP5        0.0000 
     32 CA         56.7870   -3.7410    6.9240 C.3       6 GLP5        0.0000 
     33 CA         55.7060    2.2270    9.7100 C.3       6 GLP5        0.0000 
     34 CA         54.4540    6.4620    8.7140 C.3       6 GLP5        0.0000 
     35 CA         55.0960    8.0050    1.5080 C.3       6 GLP5        0.0000 
     36 CA         49.5740   -0.6870    5.8800 C.3       6 GLP5        0.0000 
     37 CA         50.6620    3.7590    0.6890 C.3       6 GLP5        0.0000 
     38 CA         57.2660   -2.1100    0.0070 C.3       6 GLP5        0.0000 
     39 CA         59.1520   -4.3770    1.9650 C.3       6 GLP5        0.0000 
     40 N          58.0100   -2.3675    5.5240 N.am      7 SEC1        0.0000 
     41 O          58.9010   -0.7535    4.1580 O.2       8 ALC2        0.0000 
     42 CA         54.4225    8.2875    5.5435 C.3       9 GLC5        0.0000 
     43 CA         51.5785    5.6505    6.4925 C.3       9 GLC5        0.0000 
     44 CA         49.7830    6.0695    4.1085 C.3       9 GLC5        0.0000 
     45 CA         51.3345    5.0010    2.5805 C.3       9 GLC5        0.0000 
     46 CA         50.2365    2.3700    5.6860 C.3       9 GLC5        0.0000 
     47 CA         49.7360    1.7475    3.7090 C.3       9 GLC5        0.0000 
     48 CA         52.0000   -0.1510    2.1780 C.3       9 GLC5        0.0000 
     49 CA         53.1710    0.7990    6.4610 C.3       9 GLC5        0.0000 
     50 CA         55.7105    2.5845    2.3440 C.3       9 GLC5        0.0000 
     51 CA         56.8820    1.9985    2.4675 C.3       9 GLC5        0.0000 
     52 CA         53.5850   -2.0295    2.1770 C.3       9 GLC5        0.0000 
     53 CA         52.4350   -1.9185    4.2105 C.3       9 GLC5        0.0000 
     54 CA         55.2230   -3.8890    3.1615 C.3       9 GLC5        0.0000 
     55 CA         56.2635    0.3395    8.1140 C.3       9 GLC5        0.0000 
     56 CA         54.9430   -0.6310    7.4290 C.3       9 GLC5        0.0000 
     57 CA         56.5185   -2.0335    6.5220 C.3       9 GLC5        0.0000 
     58 CA         54.6445    2.9560    8.0275 C.3       9 GLC5        0.0000 
     59 CA         52.9610    2.0145    7.4055 C.3       9 GLC5        0.0000 
     60 CA         54.0185    5.0735    7.5295 C.3       9 GLC5        0.0000 
     61 CA         54.5440    6.9243    3.1095 C.3       9 GLC5        0.0000 
     62 CA         54.2230    6.1527    6.7125 C.3       9 GLC5        0.0000 
     63 CA         50.8588    0.5662    4.9363 C.3       9 GLC5        0.0000 
     64 CA         51.4881    2.9624    2.3139 C.3       9 GLC5        0.0000 
     65 CA         56.7835   -1.8493    1.8500 C.3       9 GLC5        0.0000 
     66 CA         57.7265   -2.9828    2.8290 C.3       9 GLC5        0.0000 
     67 CA         56.3856   -2.5660    5.3551 C.3       9 GLC5        0.0000 
@<TRIPOS>BOND
@<TRIPOS>SUBSTRUCTURE
     1 SEL1        1 GROUP        1 Z    SEL  0     ROOT SEL Z 0
     2 ALL2        2 GROUP        1 Z    ALL  0     **** ALL Z 1
     3 GLL5        3 GROUP        1 Z    GLL  0     **** GLL Z 4
     4 SEP1       16 GROUP        1 Z    SEP  0     **** SEP Z 7
     5 ALP2       17 GROUP        1 Z    ALP  0     **** ALP Z 8
     6 GLP5       18 GROUP        1 Z    GLP  0     **** GLP Z 11
     7 SEC1       40 GROUP        1 Z    SEC  0     **** SEC Z 14
     8 ALC2       41 GROUP        1 Z    ALC  0     **** ALC Z 15
     9 GLC5       42 GROUP        1 Z    GLC  0     **** GLC Z 18
@<TRIPOS>SET

