@<TRIPOS>MOLECULE
2pio_DHT_1_ligand
   51    54     1     0     0
SMALL
NO_CHARGES


@<TRIPOS>ATOM
     1 C1          54.4100     5.2380     4.4960 C.3          1 DHT931   0.0000
     2 C2          53.5740     6.4490     4.9260 C.3          1 DHT931   0.0000
     3 C3          52.1690     6.2570     4.2850 C.2          1 DHT931   0.0000
     4 O3          51.7100     7.1580     3.6200 O.2          1 DHT931   0.0000
     5 C4          51.4750     4.9470     4.4970 C.3          1 DHT931   0.0000
     6 C5          52.3640     3.7660     4.0300 C.3          1 DHT931   0.0000
     7 C6          51.6810     2.3810     4.2450 C.3          1 DHT931   0.0000
     8 C7          52.6060     1.2580     3.7400 C.3          1 DHT931   0.0000
     9 C8          54.0030     1.2540     4.4560 C.3          1 DHT931   0.0000
    10 C9          54.6800     2.6510     4.2500 C.3          1 DHT931   0.0000
    11 C10         53.7850     3.8440     4.7830 C.3          1 DHT931   0.0000
    12 C11         56.0900     2.6110     4.9260 C.3          1 DHT931   0.0000
    13 C12         57.0230     1.4790     4.4970 C.3          1 DHT931   0.0000
    14 C13         56.3480     0.0850     4.5870 C.3          1 DHT931   0.0000
    15 C14         54.9340     0.1530     3.9040 C.3          1 DHT931   0.0000
    16 C15         54.4540    -1.3130     4.0170 C.3          1 DHT931   0.0000
    17 C16         55.7210    -2.1030     3.6440 C.3          1 DHT931   0.0000
    18 C17         56.8810    -1.0740     3.7420 C.3          1 DHT931   0.0000
    19 O17         58.0170    -1.7290     4.3080 O.3          1 DHT931   0.0000
    20 C18         56.2500    -0.3260     6.1200 C.3          1 DHT931   0.0000
    21 C19         53.5830     3.6850     6.3450 C.3          1 DHT931   0.0000
    22 H1          55.2864     5.2852     4.9752 H            1 DHT931   0.0000
    23 H2          54.5648     5.3071     3.5105 H            1 DHT931   0.0000
    24 H3          53.9932     7.2945     4.5953 H            1 DHT931   0.0000
    25 H4          53.4987     6.4819     5.9226 H            1 DHT931   0.0000
    26 H5          50.6219     4.9405     3.9752 H            1 DHT931   0.0000
    27 H6          51.2714     4.8384     5.4700 H            1 DHT931   0.0000
    28 H7          52.5302     3.8766     3.0501 H            1 DHT931   0.0000
    29 H8          50.8191     2.3539     3.7386 H            1 DHT931   0.0000
    30 H9          51.4994     2.2483     5.2194 H            1 DHT931   0.0000
    31 H10         52.7504     1.3801     2.7580 H            1 DHT931   0.0000
    32 H11         52.1600     0.3782     3.9045 H            1 DHT931   0.0000
    33 H12         53.8653     1.1016     5.4347 H            1 DHT931   0.0000
    34 H13         54.8148     2.7842     3.2681 H            1 DHT931   0.0000
    35 H14         55.9510     2.5319     5.9131 H            1 DHT931   0.0000
    36 H15         56.5487     3.4759     4.7222 H            1 DHT931   0.0000
    37 H16         57.8276     1.4844     5.0907 H            1 DHT931   0.0000
    38 H17         57.3057     1.6378     3.5510 H            1 DHT931   0.0000
    39 H18         55.0804     0.3450     2.9336 H            1 DHT931   0.0000
    40 H19         53.7089    -1.5004     3.3769 H            1 DHT931   0.0000
    41 H20         54.1555    -1.5256     4.9474 H            1 DHT931   0.0000
    42 H21         55.6490    -2.4638     2.7141 H            1 DHT931   0.0000
    43 H22         55.8657    -2.8576     4.2841 H            1 DHT931   0.0000
    44 H23         57.1097    -0.7416     2.8270 H            1 DHT931   0.0000
    45 H24         58.7632    -1.0715     4.4123 H            1 DHT931   0.0000
    46 H25         55.8165    -1.2238     6.1973 H            1 DHT931   0.0000
    47 H26         57.1682    -0.3641     6.5143 H            1 DHT931   0.0000
    48 H27         55.7036     0.3515     6.6125 H            1 DHT931   0.0000
    49 H28         53.1810     2.7903     6.5398 H            1 DHT931   0.0000
    50 H29         54.4678     3.7601     6.8049 H            1 DHT931   0.0000
    51 H30         52.9726     4.4041     6.6771 H            1 DHT931   0.0000
@<TRIPOS>BOND
     1    1    2       1
     2    1   11       1
     3    2    3       1
     4    3    4       2
     5    3    5       1
     6    5    6       1
     7    6    7       1
     8    6   11       1
     9    7    8       1
    10    8    9       1
    11    9   10       1
    12    9   15       1
    13   10   11       1
    14   10   12       1
    15   11   21       1
    16   12   13       1
    17   13   14       1
    18   14   15       1
    19   14   18       1
    20   14   20       1
    21   15   16       1
    22   16   17       1
    23   17   18       1
    24   18   19       1
    25    1   22       1
    26    1   23       1
    27    2   24       1
    28    2   25       1
    29    5   26       1
    30    5   27       1
    31    6   28       1
    32    7   29       1
    33    7   30       1
    34    8   31       1
    35    8   32       1
    36    9   33       1
    37   10   34       1
    38   12   35       1
    39   12   36       1
    40   13   37       1
    41   13   38       1
    42   15   39       1
    43   16   40       1
    44   16   41       1
    45   17   42       1
    46   17   43       1
    47   18   44       1
    48   19   45       1
    49   20   46       1
    50   20   47       1
    51   20   48       1
    52   21   49       1
    53   21   50       1
    54   21   51       1
@<TRIPOS>SUBSTRUCTURE
     1 DHT931      1 GROUP             4 A     DHT     0 **** DHT A 931
