2pio_DHT_1_ligand
  -OEChem-08111718373D

 51 54  0     1  0  0  0  0  0999 V2000
   53.9932    7.2945    4.5953 H   0  0  0  0  0  0  0  0  0  0  0  0
   53.4987    6.4819    5.9226 H   0  0  0  0  0  0  0  0  0  0  0  0
   50.6219    4.9405    3.9752 H   0  0  0  0  0  0  0  0  0  0  0  0
   51.2714    4.8384    5.4700 H   0  0  0  0  0  0  0  0  0  0  0  0
   55.2864    5.2852    4.9752 H   0  0  0  0  0  0  0  0  0  0  0  0
   54.5648    5.3071    3.5105 H   0  0  0  0  0  0  0  0  0  0  0  0
   50.8191    2.3539    3.7386 H   0  0  0  0  0  0  0  0  0  0  0  0
   51.4994    2.2483    5.2194 H   0  0  0  0  0  0  0  0  0  0  0  0
   52.7504    1.3801    2.7580 H   0  0  0  0  0  0  0  0  0  0  0  0
   52.1600    0.3782    3.9045 H   0  0  0  0  0  0  0  0  0  0  0  0
   53.7089   -1.5004    3.3769 H   0  0  0  0  0  0  0  0  0  0  0  0
   54.1555   -1.5256    4.9474 H   0  0  0  0  0  0  0  0  0  0  0  0
   55.9510    2.5319    5.9131 H   0  0  0  0  0  0  0  0  0  0  0  0
   56.5487    3.4759    4.7222 H   0  0  0  0  0  0  0  0  0  0  0  0
   55.6490   -2.4638    2.7141 H   0  0  0  0  0  0  0  0  0  0  0  0
   55.8657   -2.8576    4.2841 H   0  0  0  0  0  0  0  0  0  0  0  0
   57.8276    1.4844    5.0907 H   0  0  0  0  0  0  0  0  0  0  0  0
   57.3057    1.6378    3.5510 H   0  0  0  0  0  0  0  0  0  0  0  0
   52.5302    3.8766    3.0501 H   0  0  0  0  0  0  0  0  0  0  0  0
   53.8653    1.1016    5.4347 H   0  0  0  0  0  0  0  0  0  0  0  0
   55.0804    0.3450    2.9336 H   0  0  0  0  0  0  0  0  0  0  0  0
   54.8148    2.7842    3.2681 H   0  0  0  0  0  0  0  0  0  0  0  0
   57.1097   -0.7416    2.8270 H   0  0  0  0  0  0  0  0  0  0  0  0
   53.1810    2.7903    6.5398 H   0  0  0  0  0  0  0  0  0  0  0  0
   54.4678    3.7601    6.8049 H   0  0  0  0  0  0  0  0  0  0  0  0
   52.9726    4.4041    6.6771 H   0  0  0  0  0  0  0  0  0  0  0  0
   55.8165   -1.2238    6.1973 H   0  0  0  0  0  0  0  0  0  0  0  0
   57.1682   -0.3641    6.5143 H   0  0  0  0  0  0  0  0  0  0  0  0
   55.7036    0.3515    6.6125 H   0  0  0  0  0  0  0  0  0  0  0  0
   58.7632   -1.0715    4.4123 H   0  0  0  0  0  0  0  0  0  0  0  0
   52.1690    6.2570    4.2850 C   0  0  0  0  0  0  0  0  0  0  0  0
   53.5740    6.4490    4.9260 C   0  0  1  0  0  0  0  0  0  0  0  0
   51.4750    4.9470    4.4970 C   0  0  2  0  0  0  0  0  0  0  0  0
   54.4100    5.2380    4.4960 C   0  0  2  0  0  0  0  0  0  0  0  0
   51.6810    2.3810    4.2450 C   0  0  1  0  0  0  0  0  0  0  0  0
   52.6060    1.2580    3.7400 C   0  0  2  0  0  0  0  0  0  0  0  0
   54.4540   -1.3130    4.0170 C   0  0  1  0  0  0  0  0  0  0  0  0
   56.0900    2.6110    4.9260 C   0  0  1  0  0  0  0  0  0  0  0  0
   55.7210   -2.1030    3.6440 C   0  0  2  0  0  0  0  0  0  0  0  0
   57.0230    1.4790    4.4970 C   0  0  2  0  0  0  0  0  0  0  0  0
   52.3640    3.7660    4.0300 C   0  0  2  0  0  0  0  0  0  0  0  0
   54.0030    1.2540    4.4560 C   0  0  1  0  0  0  0  0  0  0  0  0
   54.9340    0.1530    3.9040 C   0  0  1  0  0  0  0  0  0  0  0  0
   54.6800    2.6510    4.2500 C   0  0  1  0  0  0  0  0  0  0  0  0
   56.8810   -1.0740    3.7420 C   0  0  1  0  0  0  0  0  0  0  0  0
   53.7850    3.8440    4.7830 C   0  0  1  0  0  0  0  0  0  0  0  0
   56.3480    0.0850    4.5870 C   0  0  1  0  0  0  0  0  0  0  0  0
   53.5830    3.6850    6.3450 C   0  0  0  0  0  0  0  0  0  0  0  0
   56.2500   -0.3260    6.1200 C   0  0  0  0  0  0  0  0  0  0  0  0
   51.7100    7.1580    3.6200 O   0  0  0  0  0  0  0  0  0  0  0  0
   58.0170   -1.7290    4.3080 O   0  0  0  0  0  0  0  0  0  0  0  0
  1 32  1  0  0  0  0
  2 32  1  0  0  0  0
  3 33  1  0  0  0  0
  4 33  1  0  0  0  0
  5 34  1  0  0  0  0
  6 34  1  0  0  0  0
  7 35  1  0  0  0  0
  8 35  1  0  0  0  0
  9 36  1  0  0  0  0
 10 36  1  0  0  0  0
 11 37  1  0  0  0  0
 12 37  1  0  0  0  0
 13 38  1  0  0  0  0
 14 38  1  0  0  0  0
 15 39  1  0  0  0  0
 16 39  1  0  0  0  0
 17 40  1  0  0  0  0
 18 40  1  0  0  0  0
 19 41  1  0  0  0  0
 20 42  1  0  0  0  0
 21 43  1  0  0  0  0
 22 44  1  0  0  0  0
 23 45  1  0  0  0  0
 24 48  1  0  0  0  0
 25 48  1  0  0  0  0
 26 48  1  0  0  0  0
 27 49  1  0  0  0  0
 28 49  1  0  0  0  0
 29 49  1  0  0  0  0
 30 51  1  0  0  0  0
 31 32  1  0  0  0  0
 31 33  1  0  0  0  0
 31 50  2  0  0  0  0
 32 34  1  0  0  0  0
 33 41  1  0  0  0  0
 34 46  1  0  0  0  0
 35 36  1  0  0  0  0
 35 41  1  0  0  0  0
 36 42  1  0  0  0  0
 37 39  1  0  0  0  0
 37 43  1  0  0  0  0
 38 40  1  0  0  0  0
 38 44  1  0  0  0  0
 39 45  1  0  0  0  0
 40 47  1  0  0  0  0
 41 46  1  0  0  0  0
 42 43  1  0  0  0  0
 42 44  1  0  0  0  0
 43 47  1  0  0  0  0
 44 46  1  0  0  0  0
 45 47  1  0  0  0  0
 45 51  1  0  0  0  0
 46 48  1  0  0  0  0
 47 49  1  0  0  0  0
M  END
> <scpdb_id>
2pio_1

$$$$
