#    Name: 14654
#    Modification time : Tue Aug  8 23:21:52 2017

@<TRIPOS>MOLECULE
14654
   45     0     9     0     0
SMALL
NO_CHARGES


@<TRIPOS>ATOM
      1 N          22.3420    8.1870   30.8720 N.am      1 SEL1        0.0000 
      2 O          19.8940    9.3090   30.8900 O.2       2 ALL2        0.0000 
      3 CA         17.8810   11.5120   32.1930 C.3       3 GLL5        0.0000 
      4 CA         25.0490   10.3510   30.4840 C.3       3 GLL5        0.0000 
      5 CA         26.4390   10.4060   30.5830 C.3       3 GLL5        0.0000 
      6 CA         26.5580    7.1420   34.0750 C.3       3 GLL5        0.0000 
      7 CA         27.0000    5.5450   35.9310 C.3       3 GLL5        0.0000 
      8 CA         25.0220    8.4310   31.9450 C.3       3 GLL5        0.0000 
      9 CA         16.5340   11.8780   32.1970 C.3       3 GLL5        0.0000 
     10 CA         14.7570   13.1470   31.2450 C.3       3 GLL5        0.0000 
     11 CA         16.0590   12.7870   31.2580 C.3       3 GLL5        0.0000 
     12 CA         24.3390    9.3690   31.1760 C.3       3 GLL5        0.0000 
     13 N          23.0140    5.5850   30.4440 N.am      4 SEP1        0.0000 
     14 O          19.3740    6.4200   30.2510 O.2       5 ALP2        0.0000 
     15 O          17.2000    8.6920   30.7800 O.2       5 ALP2        0.0000 
     16 CA         19.0720    8.1700   34.0570 C.3       6 GLP5        0.0000 
     17 CA         25.2260    9.1060   26.3550 C.3       6 GLP5        0.0000 
     18 CA         22.3110   11.2980   27.3690 C.3       6 GLP5        0.0000 
     19 CA         29.3860   12.0850   27.8230 C.3       6 GLP5        0.0000 
     20 CA         22.3820    5.9390   34.5270 C.3       6 GLP5        0.0000 
     21 CA         24.7360    7.7700   38.7010 C.3       6 GLP5        0.0000 
     22 CA         26.5570   13.4140   32.2860 C.3       6 GLP5        0.0000 
     23 CA         15.7470   13.5000   35.3870 C.3       6 GLP5        0.0000 
     24 CA         12.1430   12.6470   33.1070 C.3       6 GLP5        0.0000 
     25 CA         16.0060   15.4670   33.9240 C.3       6 GLP5        0.0000 
     26 CA         13.0220   14.1600   28.7490 C.3       6 GLP5        0.0000 
     27 CA         24.2720    6.5950   28.5830 C.3       6 GLP5        0.0000 
     28 CA         15.1670    9.6040   29.8960 C.3       6 GLP5        0.0000 
     29 N          22.6780    6.8860   30.6580 N.am      7 SEC1        0.0000 
     30 O          19.6340    7.8645   30.5705 O.2       8 ALC2        0.0000 
     31 O          18.5470    9.0005   30.8350 O.2       8 ALC2        0.0000 
     32 CA         18.4765    9.8410   33.1250 C.3       9 GLC5        0.0000 
     33 CA         25.1375    9.7285   28.4195 C.3       9 GLC5        0.0000 
     34 CA         23.6800   10.8245   28.9265 C.3       9 GLC5        0.0000 
     35 CA         27.9125   11.2455   29.2030 C.3       9 GLC5        0.0000 
     36 CA         24.4700    6.5405   34.3010 C.3       9 GLC5        0.0000 
     37 CA         25.8680    6.6575   37.3160 C.3       9 GLC5        0.0000 
     38 CA         23.7020    7.1850   33.2360 C.3       9 GLC5        0.0000 
     39 CA         26.4980   11.9100   31.4345 C.3       9 GLC5        0.0000 
     40 CA         16.4772   12.5975   33.7910 C.3       9 GLC5        0.0000 
     41 CA         13.7755   12.8070   32.1792 C.3       9 GLC5        0.0000 
     42 CA         15.9810   14.2371   32.4733 C.3       9 GLC5        0.0000 
     43 CA         14.4890   13.5836   29.8858 C.3       9 GLC5        0.0000 
     44 CA         24.6961    7.9351   29.9494 C.3       9 GLC5        0.0000 
     45 CA         15.5777   11.2048   30.5759 C.3       9 GLC5        0.0000 
@<TRIPOS>BOND
@<TRIPOS>SUBSTRUCTURE
     1 SEL1        1 GROUP        1 Z    SEL  0     ROOT SEL Z 0
     2 ALL2        2 GROUP        1 Z    ALL  0     **** ALL Z 1
     3 GLL5        3 GROUP        1 Z    GLL  0     **** GLL Z 4
     4 SEP1       13 GROUP        1 Z    SEP  0     **** SEP Z 7
     5 ALP2       14 GROUP        1 Z    ALP  0     **** ALP Z 8
     6 GLP5       16 GROUP        1 Z    GLP  0     **** GLP Z 11
     7 SEC1       29 GROUP        1 Z    SEC  0     **** SEC Z 14
     8 ALC2       30 GROUP        1 Z    ALC  0     **** ALC Z 15
     9 GLC5       32 GROUP        1 Z    GLC  0     **** GLC Z 18
@<TRIPOS>SET

