@<TRIPOS>MOLECULE
2gfs_PQB_1_ligand
   45    47     1     0     0
SMALL
NO_CHARGES


@<TRIPOS>ATOM
     1 N1          19.8940     9.3090    30.8900 N.pl3        1 PQB361   0.0000
     2 C2          20.5990    10.4490    31.1270 C.2          1 PQB361   0.0000
     3 C3          21.9790    10.4980    31.2180 C.2          1 PQB361   0.0000
     4 C4          22.2960    11.8420    31.4630 C.2          1 PQB361   0.0000
     5 N5          21.1400    12.5810    31.5100 N.2          1 PQB361   0.0000
     6 N6          20.1010    11.6670    31.2890 N.pl3        1 PQB361   0.0000
     7 C7          18.8050    12.0180    31.2720 C.ar         1 PQB361   0.0000
     8 C8          17.8810    11.5120    32.1930 C.ar         1 PQB361   0.0000
     9 C9          16.5340    11.8780    32.1970 C.ar         1 PQB361   0.0000
    10 C10         16.0590    12.7870    31.2580 C.ar         1 PQB361   0.0000
    11 F11         14.7570    13.1470    31.2450 F            1 PQB361   0.0000
    12 C12         16.9490    13.3080    30.3290 C.ar         1 PQB361   0.0000
    13 C13         18.2920    12.9330    30.3450 C.ar         1 PQB361   0.0000
    14 C14         22.8390     9.2830    31.0760 C.2          1 PQB361   0.0000
    15 O15         22.3420     8.1870    30.8720 O.2          1 PQB361   0.0000
    16 C16         24.3390     9.3690    31.1760 C.ar         1 PQB361   0.0000
    17 C17         25.0490    10.3510    30.4840 C.ar         1 PQB361   0.0000
    18 C18         26.4390    10.4060    30.5830 C.ar         1 PQB361   0.0000
    19 C19         27.1160     9.4720    31.3630 C.ar         1 PQB361   0.0000
    20 C20         26.4120     8.4810    32.0430 C.ar         1 PQB361   0.0000
    21 O21         27.0850     7.5590    32.8100 O.3          1 PQB361   0.0000
    22 C22         26.5580     7.1420    34.0750 C.3          1 PQB361   0.0000
    23 C23         27.6440     6.4440    34.8830 C.3          1 PQB361   0.0000
    24 O25         28.4770     7.4260    35.5090 O.3          1 PQB361   0.0000
    25 C26         27.0000     5.5450    35.9310 C.3          1 PQB361   0.0000
    26 O27         26.6540     4.2920    35.3260 O.3          1 PQB361   0.0000
    27 C28         25.0220     8.4310    31.9450 C.ar         1 PQB361   0.0000
    28 H1          18.8960     9.3405    30.8356 H            1 PQB361   0.0000
    29 H2          20.3741     8.4400    30.7703 H            1 PQB361   0.0000
    30 H3          23.2197    12.2053    31.5845 H            1 PQB361   0.0000
    31 H4          18.2001    10.8586    32.8794 H            1 PQB361   0.0000
    32 H5          15.9111    11.4869    32.8745 H            1 PQB361   0.0000
    33 H6          16.6242    13.9581    29.6421 H            1 PQB361   0.0000
    34 H7          18.9116    13.3325    29.6693 H            1 PQB361   0.0000
    35 H8          24.5613    11.0151    29.9173 H            1 PQB361   0.0000
    36 H9          26.9484    11.1147    30.0949 H            1 PQB361   0.0000
    37 H10         28.1125     9.5130    31.4353 H            1 PQB361   0.0000
    38 H11         25.7977     6.5099    33.9255 H            1 PQB361   0.0000
    39 H12         26.2322     7.9421    34.5787 H            1 PQB361   0.0000
    40 H13         28.2011     5.8848    34.2691 H            1 PQB361   0.0000
    41 H14         28.5031     8.2504    34.9435 H            1 PQB361   0.0000
    42 H15         26.1751     5.9839    36.2873 H            1 PQB361   0.0000
    43 H16         27.6443     5.3887    36.6796 H            1 PQB361   0.0000
    44 H17         26.2306     3.6974    36.0096 H            1 PQB361   0.0000
    45 H18         24.5138     7.7186    32.4290 H            1 PQB361   0.0000
@<TRIPOS>BOND
     1    1    2       1
     2    2    3       2
     3    2    6       1
     4    3    4       1
     5    3   14       1
     6    4    5       2
     7    5    6       1
     8    6    7       1
     9    7    8      ar
    10    7   13      ar
    11    8    9      ar
    12    9   10      ar
    13   10   11       1
    14   10   12      ar
    15   12   13      ar
    16   14   15       2
    17   14   16       1
    18   16   17      ar
    19   16   27      ar
    20   17   18      ar
    21   18   19      ar
    22   19   20      ar
    23   20   21       1
    24   20   27      ar
    25   21   22       1
    26   22   23       1
    27   23   24       1
    28   23   25       1
    29   25   26       1
    30    1   28       1
    31    1   29       1
    32    4   30       1
    33    8   31       1
    34    9   32       1
    35   12   33       1
    36   13   34       1
    37   17   35       1
    38   18   36       1
    39   19   37       1
    40   22   38       1
    41   22   39       1
    42   23   40       1
    43   24   41       1
    44   25   42       1
    45   25   43       1
    46   26   44       1
    47   27   45       1
@<TRIPOS>SUBSTRUCTURE
     1 PQB361      1 GROUP             4 A     PQB     0 **** PQB A 361
