2gfs_PQB_1_ligand
  -OEChem-08111718373D

 45 47  0     1  0  0  0  0  0999 V2000
   26.9484   11.1147   30.0949 H   0  0  0  0  0  0  0  0  0  0  0  0
   24.5613   11.0151   29.9173 H   0  0  0  0  0  0  0  0  0  0  0  0
   18.2001   10.8586   32.8794 H   0  0  0  0  0  0  0  0  0  0  0  0
   18.9116   13.3325   29.6693 H   0  0  0  0  0  0  0  0  0  0  0  0
   28.1125    9.5130   31.4353 H   0  0  0  0  0  0  0  0  0  0  0  0
   15.9111   11.4869   32.8745 H   0  0  0  0  0  0  0  0  0  0  0  0
   16.6242   13.9581   29.6421 H   0  0  0  0  0  0  0  0  0  0  0  0
   24.5138    7.7186   32.4290 H   0  0  0  0  0  0  0  0  0  0  0  0
   23.2197   12.2053   31.5845 H   0  0  0  0  0  0  0  0  0  0  0  0
   26.1751    5.9839   36.2873 H   0  0  0  0  0  0  0  0  0  0  0  0
   27.6443    5.3887   36.6796 H   0  0  0  0  0  0  0  0  0  0  0  0
   25.7977    6.5099   33.9255 H   0  0  0  0  0  0  0  0  0  0  0  0
   26.2322    7.9421   34.5787 H   0  0  0  0  0  0  0  0  0  0  0  0
   28.2011    5.8848   34.2691 H   0  0  0  0  0  0  0  0  0  0  0  0
   18.8960    9.3405   30.8356 H   0  0  0  0  0  0  0  0  0  0  0  0
   20.3741    8.4400   30.7703 H   0  0  0  0  0  0  0  0  0  0  0  0
   26.2306    3.6974   36.0096 H   0  0  0  0  0  0  0  0  0  0  0  0
   28.5031    8.2504   34.9435 H   0  0  0  0  0  0  0  0  0  0  0  0
   26.4390   10.4060   30.5830 C   0  0  0  0  0  0  0  0  0  0  0  0
   25.0490   10.3510   30.4840 C   0  0  0  0  0  0  0  0  0  0  0  0
   17.8810   11.5120   32.1930 C   0  0  0  0  0  0  0  0  0  0  0  0
   18.2920   12.9330   30.3450 C   0  0  0  0  0  0  0  0  0  0  0  0
   27.1160    9.4720   31.3630 C   0  0  0  0  0  0  0  0  0  0  0  0
   16.5340   11.8780   32.1970 C   0  0  0  0  0  0  0  0  0  0  0  0
   16.9490   13.3080   30.3290 C   0  0  0  0  0  0  0  0  0  0  0  0
   25.0220    8.4310   31.9450 C   0  0  0  0  0  0  0  0  0  0  0  0
   22.2960   11.8420   31.4630 C   0  0  0  0  0  0  0  0  0  0  0  0
   24.3390    9.3690   31.1760 C   0  0  0  0  0  0  0  0  0  0  0  0
   21.9790   10.4980   31.2180 C   0  0  0  0  0  0  0  0  0  0  0  0
   18.8050   12.0180   31.2720 C   0  0  0  0  0  0  0  0  0  0  0  0
   26.4120    8.4810   32.0430 C   0  0  0  0  0  0  0  0  0  0  0  0
   16.0590   12.7870   31.2580 C   0  0  0  0  0  0  0  0  0  0  0  0
   20.5990   10.4490   31.1270 C   0  0  0  0  0  0  0  0  0  0  0  0
   22.8390    9.2830   31.0760 C   0  0  0  0  0  0  0  0  0  0  0  0
   27.0000    5.5450   35.9310 C   0  0  2  0  0  0  0  0  0  0  0  0
   26.5580    7.1420   34.0750 C   0  0  1  0  0  0  0  0  0  0  0  0
   27.6440    6.4440   34.8830 C   0  0  1  0  0  0  0  0  0  0  0  0
   21.1400   12.5810   31.5100 N   0  0  0  0  0  0  0  0  0  0  0  0
   20.1010   11.6670   31.2890 N   0  0  0  0  0  0  0  0  0  0  0  0
   19.8940    9.3090   30.8900 N   0  0  0  0  0  0  0  0  0  0  0  0
   22.3420    8.1870   30.8720 O   0  0  0  0  0  0  0  0  0  0  0  0
   26.6540    4.2920   35.3260 O   0  0  0  0  0  0  0  0  0  0  0  0
   28.4770    7.4260   35.5090 O   0  0  0  0  0  0  0  0  0  0  0  0
   27.0850    7.5590   32.8100 O   0  0  0  0  0  0  0  0  0  0  0  0
   14.7570   13.1470   31.2450 F   0  0  0  0  0  0  0  0  0  0  0  0
  1 19  1  0  0  0  0
  2 20  1  0  0  0  0
  3 21  1  0  0  0  0
  4 22  1  0  0  0  0
  5 23  1  0  0  0  0
  6 24  1  0  0  0  0
  7 25  1  0  0  0  0
  8 26  1  0  0  0  0
  9 27  1  0  0  0  0
 10 35  1  0  0  0  0
 11 35  1  0  0  0  0
 12 36  1  0  0  0  0
 13 36  1  0  0  0  0
 14 37  1  0  0  0  0
 15 40  1  0  0  0  0
 16 40  1  0  0  0  0
 17 42  1  0  0  0  0
 18 43  1  0  0  0  0
 19 20  1  0  0  0  0
 19 23  2  0  0  0  0
 20 28  2  0  0  0  0
 21 24  1  0  0  0  0
 21 30  2  0  0  0  0
 22 25  2  0  0  0  0
 22 30  1  0  0  0  0
 23 31  1  0  0  0  0
 24 32  2  0  0  0  0
 25 32  1  0  0  0  0
 26 28  1  0  0  0  0
 26 31  2  0  0  0  0
 27 29  1  0  0  0  0
 27 38  2  0  0  0  0
 28 34  1  0  0  0  0
 29 33  2  0  0  0  0
 29 34  1  0  0  0  0
 30 39  1  0  0  0  0
 31 44  1  0  0  0  0
 32 45  1  0  0  0  0
 33 39  1  0  0  0  0
 33 40  1  0  0  0  0
 34 41  2  0  0  0  0
 35 37  1  0  0  0  0
 35 42  1  0  0  0  0
 36 37  1  0  0  0  0
 36 44  1  0  0  0  0
 37 43  1  0  0  0  0
 38 39  1  0  0  0  0
M  END
> <scpdb_id>
2gfs_1

$$$$
