#    Name: 38641
#    Modification time : Tue Aug  8 22:05:57 2017

@<TRIPOS>MOLECULE
38641
   26     0     9     0     0
SMALL
NO_CHARGES


@<TRIPOS>ATOM
      1 N           3.0050   -9.5320   35.8830 N.am      1 SEL1        0.0000 
      2 N           1.3310  -11.7130   36.1140 N.am      1 SEL1        0.0000 
      3 N          -0.5740  -13.5780   32.2180 N.am      1 SEL1        0.0000 
      4 N           2.8670  -11.0730   37.9330 N.am      1 SEL1        0.0000 
      5 N           0.9390  -12.6530   38.3560 N.am      1 SEL1        0.0000 
      6 NZ          2.8670  -11.0730   37.9330 N.4       2 LYL3        0.0000 
      7 NZ          0.9390  -12.6530   38.3560 N.4       2 LYL3        0.0000 
      8 CA          1.1830  -10.8770   33.8470 C.3       3 GLL5        0.0000 
      9 N           2.7000   -6.5830   35.9560 N.am      4 SEP1        0.0000 
     10 N          -1.8350  -11.8870   36.6900 N.am      4 SEP1        0.0000 
     11 N          -0.0110  -16.5550   30.7730 N.am      4 SEP1        0.0000 
     12 N           1.7430   -9.6590   40.0460 N.am      4 SEP1        0.0000 
     13 N          -0.6610  -14.4860   37.6060 N.am      4 SEP1        0.0000 
     14 N           1.0650  -11.6020   41.0700 N.am      4 SEP1        0.0000 
     15 NZ          1.3230  -10.2990   41.1340 N.4       5 LYP3        0.0000 
     16 CA         -0.4950   -9.1010   30.6870 C.3       6 GLP5        0.0000 
     17 N           2.8525   -8.0575   35.9195 N.am      7 SEC1        0.0000 
     18 N          -0.2520  -11.8000   36.4020 N.am      7 SEC1        0.0000 
     19 N          -0.2925  -15.0665   31.4955 N.am      7 SEC1        0.0000 
     20 N           2.3050  -10.3660   38.9895 N.am      7 SEC1        0.0000 
     21 N           0.1390  -13.5695   37.9810 N.am      7 SEC1        0.0000 
     22 N          -0.4480  -12.2700   37.5230 N.am      7 SEC1        0.0000 
     23 N           1.0020  -12.1275   39.7130 N.am      7 SEC1        0.0000 
     24 NZ          2.0950  -10.6860   39.5335 N.4       8 LYC3        0.0000 
     25 NZ          1.1310  -11.4760   39.7450 N.4       8 LYC3        0.0000 
     26 CA          0.3440   -9.9890   32.2670 C.3       9 GLC5        0.0000 
@<TRIPOS>BOND
@<TRIPOS>SUBSTRUCTURE
     1 SEL1        1 GROUP        1 Z    SEL  0     ROOT SEL Z 0
     2 LYL3        6 GROUP        1 Z    LYL  0     **** LYL Z 2
     3 GLL5        8 GROUP        1 Z    GLL  0     **** GLL Z 4
     4 SEP1        9 GROUP        1 Z    SEP  0     **** SEP Z 7
     5 LYP3       15 GROUP        1 Z    LYP  0     **** LYP Z 9
     6 GLP5       16 GROUP        1 Z    GLP  0     **** GLP Z 11
     7 SEC1       17 GROUP        1 Z    SEC  0     **** SEC Z 14
     8 LYC3       24 GROUP        1 Z    LYC  0     **** LYC Z 16
     9 GLC5       26 GROUP        1 Z    GLC  0     **** GLC Z 18
@<TRIPOS>SET

