@<TRIPOS>MOLECULE
4b4w_NAP_3_ligand
   42    44     1     0     0
SMALL
NO_CHARGES


@<TRIPOS>ATOM
     1 PA           6.9360   -11.3840    33.3070 P.3          1 NAP1001   0.0000
     2 O1A          8.2160   -10.5900    33.4110 O.co2        1 NAP1001   0.0000
     3 O2A          6.5520   -12.3400    34.4110 O.co2        1 NAP1001  -1.0000
     4 O5B          5.7250   -10.3350    33.1210 O.3          1 NAP1001   0.0000
     5 C5B          4.4290   -10.7730    32.7320 C.3          1 NAP1001   0.0000
     6 C4B          3.3470   -10.0640    33.5350 C.3          1 NAP1001   0.0000
     7 O4B          2.0960   -10.3250    32.8990 O.3          1 NAP1001   0.0000
     8 C3B          3.2370   -10.5980    34.9560 C.3          1 NAP1001   0.0000
     9 O3B          3.0050    -9.5320    35.8830 O.3          1 NAP1001   0.0000
    10 C2B          2.0520   -11.5460    34.8930 C.3          1 NAP1001   0.0000
    11 O2B          1.3310   -11.7130    36.1140 O.3          1 NAP1001   0.0000
    12 C1B          1.1830   -10.8770    33.8470 C.3          1 NAP1001   0.0000
    13 N9A          0.1820   -11.7970    33.2410 N.pl3        1 NAP1001   0.0000
    14 C8A          0.7020   -13.0180    32.6600 C.2          1 NAP1001   0.0000
    15 N7A         -0.5740   -13.5780    32.2180 N.2          1 NAP1001   0.0000
    16 C5A         -1.6130   -12.7730    32.5260 C.ar         1 NAP1001   0.0000
    17 C6A         -2.9810   -12.8790    32.3150 C.ar         1 NAP1001   0.0000
    18 N6A         -3.4950   -13.9630    31.6850 N.pl3        1 NAP1001   0.0000
    19 N1A         -3.7950   -11.8850    32.7360 N.ar         1 NAP1001   0.0000
    20 C2A         -3.3010   -10.7990    33.3590 C.ar         1 NAP1001   0.0000
    21 N3A         -1.9820   -10.6670    33.5790 N.ar         1 NAP1001   0.0000
    22 C4A         -1.1320   -11.6330    33.1730 C.ar         1 NAP1001   0.0000
    23 O3           6.9410   -12.1750    31.9050 O.3          1 NAP1001   0.0000
    24 PN           6.7400   -13.7790    31.8370 P.3          1 NAP1001   0.0000
    25 O1N          5.3560   -14.0000    32.4160 O.co2        1 NAP1001   0.0000
    26 O2N          6.8660   -14.0720    30.3550 O.co2        1 NAP1001  -1.0000
    27 O5D          7.8640   -14.3480    32.6810 O.co2        1 NAP1001  -1.0000
    28 P2B          2.0650   -12.2510    37.4390 P.3          1 NAP1001   0.0000
    29 O1X          2.8670   -11.0730    37.9330 O.co2        1 NAP1001   0.0000
    30 O2X          2.9110   -13.3970    36.9440 O.co2        1 NAP1001  -1.0000
    31 O3X          0.9390   -12.6530    38.3560 O.co2        1 NAP1001  -1.0000
    32 H5B1         4.3573   -11.7584    32.8862 H            1 NAP1001   0.0000
    33 H5B2         4.2960   -10.5771    31.7604 H            1 NAP1001   0.0000
    34 H4B          3.5233    -9.0798    33.5521 H            1 NAP1001   0.0000
    35 H3B          4.0672   -11.0975    35.2034 H            1 NAP1001   0.0000
    36 H5           2.9361    -9.9042    36.8086 H            1 NAP1001   0.0000
    37 H2B          2.3539   -12.4382    34.5572 H            1 NAP1001   0.0000
    38 H1B          0.6916   -10.1235    34.2837 H            1 NAP1001   0.0000
    39 H8A          1.6362   -13.3667    32.5851 H            1 NAP1001   0.0000
    40 H6A1        -4.4813   -14.0337    31.5359 H            1 NAP1001   0.0000
    41 H6A2        -2.8880   -14.6923    31.3692 H            1 NAP1001   0.0000
    42 H2A         -3.9252   -10.0793    33.6628 H            1 NAP1001   0.0000
@<TRIPOS>BOND
     1    1    2      ar
     2    1    3      ar
     3    1    4       1
     4    1   23       1
     5    4    5       1
     6    5    6       1
     7    6    7       1
     8    6    8       1
     9    7   12       1
    10    8    9       1
    11    8   10       1
    12   10   11       1
    13   10   12       1
    14   11   28       1
    15   12   13       1
    16   13   14       1
    17   13   22       1
    18   14   15       2
    19   15   16       1
    20   16   17      ar
    21   16   22      ar
    22   17   18       1
    23   17   19      ar
    24   19   20      ar
    25   20   21      ar
    26   21   22      ar
    27   23   24       1
    28   24   25      ar
    29   24   26      ar
    30   24   27      ar
    31   28   29      ar
    32   28   30      ar
    33   28   31      ar
    34   20   42       1
    35    5   32       1
    36    5   33       1
    37    6   34       1
    38    8   35       1
    39    9   36       1
    40   10   37       1
    41   12   38       1
    42   14   39       1
    43   18   40       1
    44   18   41       1
@<TRIPOS>SUBSTRUCTURE
     1 NAP1001     1 GROUP             4 A     NAP     0 **** NAP A1001
