4b4w_NAP_3_ligand
  -OEChem-08111718373D

 42 44  0     1  0  0  0  0  0999 V2000
   -3.9252  -10.0793   33.6628 H   0  0  0  0  0  0  0  0  0  0  0  0
    1.6362  -13.3667   32.5851 H   0  0  0  0  0  0  0  0  0  0  0  0
    4.0672  -11.0975   35.2034 H   0  0  0  0  0  0  0  0  0  0  0  0
    2.3539  -12.4382   34.5572 H   0  0  0  0  0  0  0  0  0  0  0  0
    3.5233   -9.0798   33.5521 H   0  0  0  0  0  0  0  0  0  0  0  0
    0.6916  -10.1235   34.2837 H   0  0  0  0  0  0  0  0  0  0  0  0
    4.3573  -11.7584   32.8862 H   0  0  0  0  0  0  0  0  0  0  0  0
    4.2960  -10.5771   31.7604 H   0  0  0  0  0  0  0  0  0  0  0  0
   -4.4813  -14.0337   31.5359 H   0  0  0  0  0  0  0  0  0  0  0  0
   -2.8880  -14.6923   31.3692 H   0  0  0  0  0  0  0  0  0  0  0  0
    2.9361   -9.9042   36.8086 H   0  0  0  0  0  0  0  0  0  0  0  0
   -3.3010  -10.7990   33.3590 C   0  0  0  0  0  0  0  0  0  0  0  0
    0.7020  -13.0180   32.6600 C   0  0  0  0  0  0  0  0  0  0  0  0
   -1.6130  -12.7730   32.5260 C   0  0  0  0  0  0  0  0  0  0  0  0
   -1.1320  -11.6330   33.1730 C   0  0  0  0  0  0  0  0  0  0  0  0
   -2.9810  -12.8790   32.3150 C   0  0  0  0  0  0  0  0  0  0  0  0
    3.2370  -10.5980   34.9560 C   0  0  1  0  0  0  0  0  0  0  0  0
    2.0520  -11.5460   34.8930 C   0  0  2  0  0  0  0  0  0  0  0  0
    3.3470  -10.0640   33.5350 C   0  0  1  0  0  0  0  0  0  0  0  0
    1.1830  -10.8770   33.8470 C   0  0  2  0  0  0  0  0  0  0  0  0
    4.4290  -10.7730   32.7320 C   0  0  1  0  0  0  0  0  0  0  0  0
   -1.9820  -10.6670   33.5790 N   0  0  0  0  0  0  0  0  0  0  0  0
   -3.7950  -11.8850   32.7360 N   0  0  0  0  0  0  0  0  0  0  0  0
   -0.5740  -13.5780   32.2180 N   0  0  0  0  0  0  0  0  0  0  0  0
    0.1820  -11.7970   33.2410 N   0  0  0  0  0  0  0  0  0  0  0  0
   -3.4950  -13.9630   31.6850 N   0  0  0  0  0  0  0  0  0  0  0  0
    2.9110  -13.3970   36.9440 O   0  5  0  0  0  0  0  0  0  0  0  0
    0.9390  -12.6530   38.3560 O   0  5  0  0  0  0  0  0  0  0  0  0
    6.8660  -14.0720   30.3550 O   0  5  0  0  0  0  0  0  0  0  0  0
    7.8640  -14.3480   32.6810 O   0  5  0  0  0  0  0  0  0  0  0  0
    6.5520  -12.3400   34.4110 O   0  5  0  0  0  0  0  0  0  0  0  0
    2.8670  -11.0730   37.9330 O   0  0  0  0  0  0  0  0  0  0  0  0
    5.3560  -14.0000   32.4160 O   0  0  0  0  0  0  0  0  0  0  0  0
    8.2160  -10.5900   33.4110 O   0  0  0  0  0  0  0  0  0  0  0  0
    2.0960  -10.3250   32.8990 O   0  0  0  0  0  0  0  0  0  0  0  0
    3.0050   -9.5320   35.8830 O   0  0  0  0  0  0  0  0  0  0  0  0
    1.3310  -11.7130   36.1140 O   0  0  0  0  0  0  0  0  0  0  0  0
    5.7250  -10.3350   33.1210 O   0  0  0  0  0  0  0  0  0  0  0  0
    6.9410  -12.1750   31.9050 O   0  0  0  0  0  0  0  0  0  0  0  0
    2.0650  -12.2510   37.4390 P   0  0  0  0  0  0  0  0  0  0  0  0
    6.7400  -13.7790   31.8370 P   0  0  0  0  0  0  0  0  0  0  0  0
    6.9360  -11.3840   33.3070 P   0  0  2  0  0  0  0  0  0  0  0  0
  1 12  1  0  0  0  0
  2 13  1  0  0  0  0
  3 17  1  0  0  0  0
  4 18  1  0  0  0  0
  5 19  1  0  0  0  0
  6 20  1  0  0  0  0
  7 21  1  0  0  0  0
  8 21  1  0  0  0  0
  9 26  1  0  0  0  0
 10 26  1  0  0  0  0
 11 36  1  0  0  0  0
 12 22  1  0  0  0  0
 12 23  2  0  0  0  0
 13 24  2  0  0  0  0
 13 25  1  0  0  0  0
 14 15  1  0  0  0  0
 14 16  2  0  0  0  0
 14 24  1  0  0  0  0
 15 22  2  0  0  0  0
 15 25  1  0  0  0  0
 16 23  1  0  0  0  0
 16 26  1  0  0  0  0
 17 18  1  0  0  0  0
 17 19  1  0  0  0  0
 17 36  1  0  0  0  0
 18 20  1  0  0  0  0
 18 37  1  0  0  0  0
 19 21  1  0  0  0  0
 19 35  1  0  0  0  0
 20 25  1  0  0  0  0
 20 35  1  0  0  0  0
 21 38  1  0  0  0  0
 27 40  1  0  0  0  0
 28 40  1  0  0  0  0
 29 41  1  0  0  0  0
 30 41  1  0  0  0  0
 31 42  1  0  0  0  0
 32 40  2  0  0  0  0
 33 41  2  0  0  0  0
 34 42  2  0  0  0  0
 37 40  1  0  0  0  0
 38 42  1  0  0  0  0
 39 41  1  0  0  0  0
 39 42  1  0  0  0  0
M  CHG  5  31  -1  29  -1  30  -1  27  -1  28  -1
M  END
> <scpdb_id>
4b4w_3

$$$$
