#    Name: 8477
#    Modification time : Tue Aug  8 18:57:08 2017

@<TRIPOS>MOLECULE
8477
   73     0     9     0     0
SMALL
NO_CHARGES


@<TRIPOS>ATOM
      1 N          24.6310   14.5740    4.5980 N.am      1 SEL1        0.0000 
      2 N          19.5970   10.8120    5.2650 N.am      1 SEL1        0.0000 
      3 O          24.6310   14.5740    4.5980 O.2       2 ALL2        0.0000 
      4 O          20.7220   13.3530    5.5760 O.2       2 ALL2        0.0000 
      5 O          19.5970   10.8120    5.2650 O.2       2 ALL2        0.0000 
      6 CA         27.0690   20.2970    8.8310 C.3       3 GLL5        0.0000 
      7 CA         25.5490   18.4430    9.0430 C.3       3 GLL5        0.0000 
      8 CA         24.6680   20.6270    9.1400 C.3       3 GLL5        0.0000 
      9 CA         22.3560   14.2170    8.2740 C.3       3 GLL5        0.0000 
     10 CA         20.3120   13.5360    9.4770 C.3       3 GLL5        0.0000 
     11 CA         17.4730   11.7970    4.6840 C.3       3 GLL5        0.0000 
     12 CA         21.7070   11.8270    8.5270 C.3       3 GLL5        0.0000 
     13 CA         17.8380   12.4530    3.3660 C.3       3 GLL5        0.0000 
     14 CA         19.0030   13.3900    3.7380 C.3       3 GLL5        0.0000 
     15 CA         17.3650   12.3900    2.0830 C.3       3 GLL5        0.0000 
     16 CA         19.0450   14.0510    1.4600 C.3       3 GLL5        0.0000 
     17 CA         19.5280   14.1430    2.7420 C.3       3 GLL5        0.0000 
     18 CA         17.9900   13.1970    1.1420 C.3       3 GLL5        0.0000 
     19 CA         21.9880   23.5740    3.7910 C.3       3 GLL5        0.0000 
     20 CA         20.8290   10.8650    9.0160 C.3       3 GLL5        0.0000 
     21 N          25.9420   13.4800    2.4000 N.am      4 SEP1        0.0000 
     22 N          20.4410    9.4130    2.7190 N.am      4 SEP1        0.0000 
     23 O          26.2530   14.0530    6.6400 O.2       5 ALP2        0.0000 
     24 O          22.8980   11.1430    5.2580 O.2       5 ALP2        0.0000 
     25 CA         28.5370   16.9030    6.8890 C.3       6 GLP5        0.0000 
     26 CA         30.8040   21.3940   10.2290 C.3       6 GLP5        0.0000 
     27 CA         25.5950   22.2000   12.5030 C.3       6 GLP5        0.0000 
     28 CA         26.5430   17.6100   12.8720 C.3       6 GLP5        0.0000 
     29 CA         24.9680   15.3330   10.7490 C.3       6 GLP5        0.0000 
     30 CA         22.2130   17.3090   10.5210 C.3       6 GLP5        0.0000 
     31 CA         22.0250   18.6750   11.1110 C.3       6 GLP5        0.0000 
     32 CA         18.6760    7.7810    3.2540 C.3       6 GLP5        0.0000 
     33 CA         24.8490   10.1780    8.4070 C.3       6 GLP5        0.0000 
     34 CA         19.1070   15.4230   12.7380 C.3       6 GLP5        0.0000 
     35 CA         13.8040   13.6400    3.1660 C.3       6 GLP5        0.0000 
     36 CA         16.9140   16.4800    4.4130 C.3       6 GLP5        0.0000 
     37 CA         16.6660    9.7970   -0.5350 C.3       6 GLP5        0.0000 
     38 CA         17.6260   16.0550   -1.5730 C.3       6 GLP5        0.0000 
     39 CA         14.7350   15.0650    1.2650 C.3       6 GLP5        0.0000 
     40 CA         21.1080   17.2840    0.0540 C.3       6 GLP5        0.0000 
     41 CA         19.6460   23.8520    1.2730 C.3       6 GLP5        0.0000 
     42 CA         22.0310   12.1970    1.3770 C.3       6 GLP5        0.0000 
     43 CA         22.6730   11.7220   12.5730 C.3       6 GLP5        0.0000 
     44 N          25.2865   14.0270    3.4990 N.am      7 SEC1        0.0000 
     45 N          20.0190   10.1125    3.9920 N.am      7 SEC1        0.0000 
     46 O          25.4420   14.3135    5.6190 O.2       8 ALC2        0.0000 
     47 O          21.8100   12.2480    5.4170 O.2       8 ALC2        0.0000 
     48 O          21.2475   10.9775    5.2615 O.2       8 ALC2        0.0000 
     49 CA         27.8030   18.6000    7.8600 C.3       9 GLC5        0.0000 
     50 CA         28.9365   20.8455    9.5300 C.3       9 GLC5        0.0000 
     51 CA         26.3320   21.2485   10.6670 C.3       9 GLC5        0.0000 
     52 CA         27.0430   17.6730    7.9660 C.3       9 GLC5        0.0000 
     53 CA         26.0460   18.0265   10.9575 C.3       9 GLC5        0.0000 
     54 CA         25.2585   16.8880    9.8960 C.3       9 GLC5        0.0000 
     55 CA         23.8810   17.8760    9.7820 C.3       9 GLC5        0.0000 
     56 CA         25.1315   21.4135   10.8215 C.3       9 GLC5        0.0000 
     57 CA         23.3465   19.6510   10.1255 C.3       9 GLC5        0.0000 
     58 CA         23.6620   14.7750    9.5115 C.3       9 GLC5        0.0000 
     59 CA         22.2845   15.7630    9.3975 C.3       9 GLC5        0.0000 
     60 CA         21.2625   15.4225    9.9990 C.3       9 GLC5        0.0000 
     61 CA         18.0745    9.7890    3.9690 C.3       9 GLC5        0.0000 
     62 CA         23.0585   10.7620    8.5892 C.3       9 GLC5        0.0000 
     63 CA         19.4907   14.2430   11.2293 C.3       9 GLC5        0.0000 
     64 CA         15.7298   12.8825    3.5955 C.3       9 GLC5        0.0000 
     65 CA         17.6673   14.7007    3.9825 C.3       9 GLC5        0.0000 
     66 CA         17.1717   11.2952    0.5387 C.3       9 GLC5        0.0000 
     67 CA         18.0718   14.8395   -0.1360 C.3       9 GLC5        0.0000 
     68 CA         18.1003   15.2885    3.2570 C.3       9 GLC5        0.0000 
     69 CA         16.5481   14.2436    1.4006 C.3       9 GLC5        0.0000 
     70 CA         20.1973   15.6905    1.0775 C.3       9 GLC5        0.0000 
     71 CA         20.9945   23.9726    2.5551 C.3       9 GLC5        0.0000 
     72 CA         20.5876   13.0110    2.0039 C.3       9 GLC5        0.0000 
     73 CA         21.6371   11.8815   10.8946 C.3       9 GLC5        0.0000 
@<TRIPOS>BOND
@<TRIPOS>SUBSTRUCTURE
     1 SEL1        1 GROUP        1 Z    SEL  0     ROOT SEL Z 0
     2 ALL2        3 GROUP        1 Z    ALL  0     **** ALL Z 1
     3 GLL5        6 GROUP        1 Z    GLL  0     **** GLL Z 4
     4 SEP1       21 GROUP        1 Z    SEP  0     **** SEP Z 7
     5 ALP2       23 GROUP        1 Z    ALP  0     **** ALP Z 8
     6 GLP5       25 GROUP        1 Z    GLP  0     **** GLP Z 11
     7 SEC1       44 GROUP        1 Z    SEC  0     **** SEC Z 14
     8 ALC2       46 GROUP        1 Z    ALC  0     **** ALC Z 15
     9 GLC5       49 GROUP        1 Z    GLC  0     **** GLC Z 18
@<TRIPOS>SET

