1sdv_MK1_1_ligand
  -OEChem-08111718373D

 93 97  0     1  0  0  0  0  0999 V2000
   19.0675   10.5488   10.0623 H   0  0  0  0  0  0  0  0  0  0  0  0
   17.6696   13.1643    0.1953 H   0  0  0  0  0  0  0  0  0  0  0  0
   19.4585   14.6080    0.7397 H   0  0  0  0  0  0  0  0  0  0  0  0
   21.0137    9.8952    8.8569 H   0  0  0  0  0  0  0  0  0  0  0  0
   18.6272   12.8653   10.4820 H   0  0  0  0  0  0  0  0  0  0  0  0
   21.4512   25.3020    4.7985 H   0  0  0  0  0  0  0  0  0  0  0  0
   16.6042   11.7903    1.8349 H   0  0  0  0  0  0  0  0  0  0  0  0
   20.2772   14.7742    2.9430 H   0  0  0  0  0  0  0  0  0  0  0  0
   22.5235   11.5549    8.0178 H   0  0  0  0  0  0  0  0  0  0  0  0
   20.1305   14.5041    9.6496 H   0  0  0  0  0  0  0  0  0  0  0  0
   21.1600   23.0466    3.9816 H   0  0  0  0  0  0  0  0  0  0  0  0
   23.4036   26.4897    4.3708 H   0  0  0  0  0  0  0  0  0  0  0  0
   24.9349   23.3687    2.2867 H   0  0  0  0  0  0  0  0  0  0  0  0
   16.7085   12.2817    5.1090 H   0  0  0  0  0  0  0  0  0  0  0  0
   17.2195   10.8414    4.5337 H   0  0  0  0  0  0  0  0  0  0  0  0
   23.4805   19.4518    1.3098 H   0  0  0  0  0  0  0  0  0  0  0  0
   22.2649   19.2415    2.3797 H   0  0  0  0  0  0  0  0  0  0  0  0
   23.4856   17.3351    2.4793 H   0  0  0  0  0  0  0  0  0  0  0  0
   24.8975   18.1548    2.5134 H   0  0  0  0  0  0  0  0  0  0  0  0
   22.6003   20.1031    4.6272 H   0  0  0  0  0  0  0  0  0  0  0  0
   23.7399   21.2568    4.8196 H   0  0  0  0  0  0  0  0  0  0  0  0
   18.8062   13.9347    5.7459 H   0  0  0  0  0  0  0  0  0  0  0  0
   25.4310   19.5128    4.6742 H   0  0  0  0  0  0  0  0  0  0  0  0
   18.4278   11.8399    6.5319 H   0  0  0  0  0  0  0  0  0  0  0  0
   27.2169   20.3221    9.8197 H   0  0  0  0  0  0  0  0  0  0  0  0
   27.7556   19.7071    8.4061 H   0  0  0  0  0  0  0  0  0  0  0  0
   27.1476   21.2218    8.4586 H   0  0  0  0  0  0  0  0  0  0  0  0
   25.6677   18.4578   10.0358 H   0  0  0  0  0  0  0  0  0  0  0  0
   24.6429   18.0829    8.8209 H   0  0  0  0  0  0  0  0  0  0  0  0
   26.2495   17.8594    8.6322 H   0  0  0  0  0  0  0  0  0  0  0  0
   24.7877   20.6390   10.1327 H   0  0  0  0  0  0  0  0  0  0  0  0
   24.7786   21.5532    8.7797 H   0  0  0  0  0  0  0  0  0  0  0  0
   23.7528   20.2903    8.9187 H   0  0  0  0  0  0  0  0  0  0  0  0
   22.0211   15.1008    8.6008 H   0  0  0  0  0  0  0  0  0  0  0  0
   23.2569   14.0354    8.6682 H   0  0  0  0  0  0  0  0  0  0  0  0
   21.8526   21.4627    2.4976 H   0  0  0  0  0  0  0  0  0  0  0  0
   23.0349   21.7827    1.4176 H   0  0  0  0  0  0  0  0  0  0  0  0
   22.8680   16.3641    6.6218 H   0  0  0  0  0  0  0  0  0  0  0  0
   24.2120   15.5079    6.9782 H   0  0  0  0  0  0  0  0  0  0  0  0
   25.2920   17.0923    5.5078 H   0  0  0  0  0  0  0  0  0  0  0  0
   25.3980   16.6779    3.9318 H   0  0  0  0  0  0  0  0  0  0  0  0
   22.9521   13.4762    6.3972 H   0  0  0  0  0  0  0  0  0  0  0  0
   23.0679   15.7197    4.3383 H   0  0  0  0  0  0  0  0  0  0  0  0
   26.2636   20.0476    6.5369 H   0  0  0  0  0  0  0  0  0  0  0  0
   21.3516   12.5941    5.4095 H   0  0  0  0  0  0  0  0  0  0  0  0
   20.5384   11.1304    5.3765 H   0  0  0  0  0  0  0  0  0  0  0  0
   25.1373   14.2584    5.4005 H   0  0  0  0  0  0  0  0  0  0  0  0
   19.6990   11.2460    9.7230 C   0  0  0  0  0  0  0  0  0  0  0  0
   17.9900   13.1970    1.1420 C   0  0  0  0  0  0  0  0  0  0  0  0
   19.0450   14.0510    1.4600 C   0  0  0  0  0  0  0  0  0  0  0  0
   20.8290   10.8650    9.0160 C   0  0  0  0  0  0  0  0  0  0  0  0
   19.4370   12.5900    9.9640 C   0  0  0  0  0  0  0  0  0  0  0  0
   22.1730   24.8660    4.2610 C   0  0  0  0  0  0  0  0  0  0  0  0
   17.3650   12.3900    2.0830 C   0  0  0  0  0  0  0  0  0  0  0  0
   19.5280   14.1430    2.7420 C   0  0  0  0  0  0  0  0  0  0  0  0
   21.7070   11.8270    8.5270 C   0  0  0  0  0  0  0  0  0  0  0  0
   20.3120   13.5360    9.4770 C   0  0  0  0  0  0  0  0  0  0  0  0
   21.9880   23.5740    3.7910 C   0  0  0  0  0  0  0  0  0  0  0  0
   23.3450   25.5640    3.9970 C   0  0  0  0  0  0  0  0  0  0  0  0
   24.2070   23.8070    2.8140 C   0  0  0  0  0  0  0  0  0  0  0  0
   17.8380   12.4530    3.3660 C   0  0  0  0  0  0  0  0  0  0  0  0
   19.0030   13.3900    3.7380 C   0  0  0  0  0  0  0  0  0  0  0  0
   21.4340   13.1780    8.7560 C   0  0  0  0  0  0  0  0  0  0  0  0
   23.0380   23.0670    3.0360 C   0  0  0  0  0  0  0  0  0  0  0  0
   24.4050   19.3170    6.4600 C   0  0  0  0  0  0  0  0  0  0  0  0
   21.1560   14.4840    6.1000 C   0  0  0  0  0  0  0  0  0  0  0  0
   17.4730   11.7970    4.6840 C   0  0  1  0  0  0  0  0  0  0  0  0
   23.2510   19.3740    2.2800 C   0  0  1  0  0  0  0  0  0  0  0  0
   23.9500   18.1470    2.8330 C   0  0  1  0  0  0  0  0  0  0  0  0
   23.5320   20.3780    4.3900 C   0  0  1  0  0  0  0  0  0  0  0  0
   19.3100   13.2310    5.2450 C   0  0  1  0  0  0  0  0  0  0  0  0
   24.4930   19.3320    4.9700 C   0  0  2  0  0  0  0  0  0  0  0  0
   18.6950   11.8770    5.5690 C   0  0  2  0  0  0  0  0  0  0  0  0
   27.0690   20.2970    8.8310 C   0  0  0  0  0  0  0  0  0  0  0  0
   25.5490   18.4430    9.0430 C   0  0  0  0  0  0  0  0  0  0  0  0
   24.6680   20.6270    9.1400 C   0  0  0  0  0  0  0  0  0  0  0  0
   22.3560   14.2170    8.2740 C   0  0  1  0  0  0  0  0  0  0  0  0
   22.8200   21.6920    2.3900 C   0  0  1  0  0  0  0  0  0  0  0  0
   23.3970   15.5450    6.4000 C   0  0  1  0  0  0  0  0  0  0  0  0
   24.7690   16.8890    4.6800 C   0  0  1  0  0  0  0  0  0  0  0  0
   22.5180   14.3080    6.7430 C   0  0  2  0  0  0  0  0  0  0  0  0
   23.8660   15.6730    4.9390 C   0  0  1  0  0  0  0  0  0  0  0  0
   25.6710   19.7460    8.5380 C   0  0  1  0  0  0  0  0  0  0  0  0
   24.4410   25.1230    3.2750 N   0  0  0  0  0  0  0  0  0  0  0  0
   25.4990   19.7270    7.0960 N   0  0  0  0  0  0  0  0  0  0  0  0
   20.7220   13.3530    5.5760 N   0  0  0  0  0  0  0  0  0  0  0  0
   23.5910   20.5680    2.9010 N   0  0  2  0  0  0  0  0  0  0  0  0
   23.9590   18.0700    4.3150 N   0  3  2  0  0  0  0  0  0  0  0  0
   23.3770   18.9420    7.0090 O   0  0  0  0  0  0  0  0  0  0  0  0
   20.4720   15.5250    6.1120 O   0  0  0  0  0  0  0  0  0  0  0  0
   19.5970   10.8120    5.2650 O   0  0  0  0  0  0  0  0  0  0  0  0
   24.6310   14.5740    4.5980 O   0  0  0  0  0  0  0  0  0  0  0  0
   23.0218   17.9264    4.6328 H   0  0  0  0  0  0  0  0  0  0  0  0
  1 48  1  0  0  0  0
  2 49  1  0  0  0  0
  3 50  1  0  0  0  0
  4 51  1  0  0  0  0
  5 52  1  0  0  0  0
  6 53  1  0  0  0  0
  7 54  1  0  0  0  0
  8 55  1  0  0  0  0
  9 56  1  0  0  0  0
 10 57  1  0  0  0  0
 11 58  1  0  0  0  0
 12 59  1  0  0  0  0
 13 60  1  0  0  0  0
 14 67  1  0  0  0  0
 15 67  1  0  0  0  0
 16 68  1  0  0  0  0
 17 68  1  0  0  0  0
 18 69  1  0  0  0  0
 19 69  1  0  0  0  0
 20 70  1  0  0  0  0
 21 70  1  0  0  0  0
 22 71  1  0  0  0  0
 23 72  1  0  0  0  0
 24 73  1  0  0  0  0
 25 74  1  0  0  0  0
 26 74  1  0  0  0  0
 27 74  1  0  0  0  0
 28 75  1  0  0  0  0
 29 75  1  0  0  0  0
 30 75  1  0  0  0  0
 31 76  1  0  0  0  0
 32 76  1  0  0  0  0
 33 76  1  0  0  0  0
 34 77  1  0  0  0  0
 35 77  1  0  0  0  0
 36 78  1  0  0  0  0
 37 78  1  0  0  0  0
 38 79  1  0  0  0  0
 39 79  1  0  0  0  0
 40 80  1  0  0  0  0
 41 80  1  0  0  0  0
 42 81  1  0  0  0  0
 43 82  1  0  0  0  0
 44 85  1  0  0  0  0
 45 86  1  0  0  0  0
 46 91  1  0  0  0  0
 47 92  1  0  0  0  0
 48 51  2  0  0  0  0
 48 52  1  0  0  0  0
 49 50  2  0  0  0  0
 49 54  1  0  0  0  0
 50 55  1  0  0  0  0
 51 56  1  0  0  0  0
 52 57  2  0  0  0  0
 53 58  2  0  0  0  0
 53 59  1  0  0  0  0
 54 61  2  0  0  0  0
 55 62  2  0  0  0  0
 56 63  2  0  0  0  0
 57 63  1  0  0  0  0
 58 64  1  0  0  0  0
 59 84  2  0  0  0  0
 60 64  2  0  0  0  0
 60 84  1  0  0  0  0
 61 62  1  0  0  0  0
 61 67  1  0  0  0  0
 62 71  1  0  0  0  0
 63 77  1  0  0  0  0
 64 78  1  0  0  0  0
 65 72  1  0  0  0  0
 65 85  1  0  0  0  0
 65 89  2  0  0  0  0
 66 81  1  0  0  0  0
 66 86  1  0  0  0  0
 66 90  2  0  0  0  0
 67 73  1  0  0  0  0
 68 69  1  0  0  0  0
 68 87  1  0  0  0  0
 69 88  1  0  0  0  0
 70 72  1  0  0  0  0
 70 87  1  0  0  0  0
 71 73  1  0  0  0  0
 71 86  1  0  0  0  0
 72 88  1  0  0  0  0
 73 91  1  0  0  0  0
 74 83  1  0  0  0  0
 75 83  1  0  0  0  0
 76 83  1  0  0  0  0
 77 81  1  0  0  0  0
 78 87  1  0  0  0  0
 79 81  1  0  0  0  0
 79 82  1  0  0  0  0
 80 82  1  0  0  0  0
 80 88  1  0  0  0  0
 82 92  1  0  0  0  0
 83 85  1  0  0  0  0
 88 93  1  0  0  0  0
M  CHG  1  88   1
M  END
> <scpdb_id>
1sdv_1

$$$$
