@<TRIPOS>MOLECULE
1sdv_MK1_1_ligand
   94    98     1     0     0
SMALL
NO_CHARGES


@<TRIPOS>ATOM
     1 N1          23.5910    20.5680     2.9010 N.4          1 MK1902   1.0000
     2 C1          23.5320    20.3780     4.3900 C.3          1 MK1902   0.0000
     3 C2          24.4930    19.3320     4.9700 C.3          1 MK1902   0.0000
     4 C3          24.4050    19.3170     6.4600 C.2          1 MK1902   0.0000
     5 O1          23.3770    18.9420     7.0090 O.2          1 MK1902   0.0000
     6 N2          25.4990    19.7270     7.0960 N.am         1 MK1902   0.0000
     7 C4          25.6710    19.7460     8.5380 C.3          1 MK1902   0.0000
     8 C5          27.0690    20.2970     8.8310 C.3          1 MK1902   0.0000
     9 C6          25.5490    18.4430     9.0430 C.3          1 MK1902   0.0000
    10 C7          24.6680    20.6270     9.1400 C.3          1 MK1902   0.0000
    11 N3          23.9590    18.0700     4.3150 N.4          1 MK1902   1.0000
    12 C8          23.9500    18.1470     2.8330 C.3          1 MK1902   0.0000
    13 C9          23.2510    19.3740     2.2800 C.3          1 MK1902   0.0000
    14 C10         24.7690    16.8890     4.6800 C.3          1 MK1902   0.0000
    15 C11         23.8660    15.6730     4.9390 C.3          1 MK1902   0.0000
    16 O2          24.6310    14.5740     4.5980 O.3          1 MK1902   0.0000
    17 C12         23.3970    15.5450     6.4000 C.3          1 MK1902   0.0000
    18 C13         22.5180    14.3080     6.7430 C.3          1 MK1902   0.0000
    19 C14         22.3560    14.2170     8.2740 C.3          1 MK1902   0.0000
    20 C15         21.4340    13.1780     8.7560 C.ar         1 MK1902   0.0000
    21 C16         21.7070    11.8270     8.5270 C.ar         1 MK1902   0.0000
    22 C17         20.8290    10.8650     9.0160 C.ar         1 MK1902   0.0000
    23 C18         19.6990    11.2460     9.7230 C.ar         1 MK1902   0.0000
    24 C19         19.4370    12.5900     9.9640 C.ar         1 MK1902   0.0000
    25 C20         20.3120    13.5360     9.4770 C.ar         1 MK1902   0.0000
    26 C21         21.1560    14.4840     6.1000 C.2          1 MK1902   0.0000
    27 O3          20.4720    15.5250     6.1120 O.2          1 MK1902   0.0000
    28 N4          20.7220    13.3530     5.5760 N.am         1 MK1902   0.0000
    29 C22         19.3100    13.2310     5.2450 C.3          1 MK1902   0.0000
    30 C23         18.6950    11.8770     5.5690 C.3          1 MK1902   0.0000
    31 O4          19.5970    10.8120     5.2650 O.3          1 MK1902   0.0000
    32 C24         17.4730    11.7970     4.6840 C.3          1 MK1902   0.0000
    33 C25         17.8380    12.4530     3.3660 C.ar         1 MK1902   0.0000
    34 C26         17.3650    12.3900     2.0830 C.ar         1 MK1902   0.0000
    35 C27         17.9900    13.1970     1.1420 C.ar         1 MK1902   0.0000
    36 C28         19.0450    14.0510     1.4600 C.ar         1 MK1902   0.0000
    37 C29         19.5280    14.1430     2.7420 C.ar         1 MK1902   0.0000
    38 C30         19.0030    13.3900     3.7380 C.ar         1 MK1902   0.0000
    39 C31         22.8200    21.6920     2.3900 C.3          1 MK1902   0.0000
    40 C32         23.0380    23.0670     3.0360 C.ar         1 MK1902   0.0000
    41 C33         24.2070    23.8070     2.8140 C.ar         1 MK1902   0.0000
    42 N5          24.4410    25.1230     3.2750 N.ar         1 MK1902   0.0000
    43 C34         23.3450    25.5640     3.9970 C.ar         1 MK1902   0.0000
    44 C35         22.1730    24.8660     4.2610 C.ar         1 MK1902   0.0000
    45 C36         21.9880    23.5740     3.7910 C.ar         1 MK1902   0.0000
    46 H1          22.6003    20.1031     4.6272 H            1 MK1902   0.0000
    47 H2          23.7399    21.2568     4.8196 H            1 MK1902   0.0000
    48 H3          25.4310    19.5128     4.6742 H            1 MK1902   0.0000
    49 H4          26.2636    20.0476     6.5369 H            1 MK1902   0.0000
    50 H5          27.2169    20.3221     9.8197 H            1 MK1902   0.0000
    51 H6          27.7556    19.7071     8.4061 H            1 MK1902   0.0000
    52 H7          27.1476    21.2218     8.4586 H            1 MK1902   0.0000
    53 H8          25.6677    18.4578    10.0358 H            1 MK1902   0.0000
    54 H9          24.6429    18.0829     8.8209 H            1 MK1902   0.0000
    55 H10         26.2495    17.8594     8.6322 H            1 MK1902   0.0000
    56 H11         24.7877    20.6390    10.1327 H            1 MK1902   0.0000
    57 H12         24.7786    21.5532     8.7797 H            1 MK1902   0.0000
    58 H13         23.7528    20.2903     8.9187 H            1 MK1902   0.0000
    59 H14         23.4856    17.3351     2.4793 H            1 MK1902   0.0000
    60 H15         24.8975    18.1548     2.5134 H            1 MK1902   0.0000
    61 H16         23.4805    19.4518     1.3098 H            1 MK1902   0.0000
    62 H17         22.2649    19.2415     2.3797 H            1 MK1902   0.0000
    63 H18         25.2920    17.0923     5.5078 H            1 MK1902   0.0000
    64 H19         25.3980    16.6779     3.9318 H            1 MK1902   0.0000
    65 H20         23.0679    15.7197     4.3383 H            1 MK1902   0.0000
    66 H21         25.1373    14.2584     5.4005 H            1 MK1902   0.0000
    67 H22         22.8680    16.3641     6.6218 H            1 MK1902   0.0000
    68 H23         24.2120    15.5079     6.9782 H            1 MK1902   0.0000
    69 H24         22.9521    13.4762     6.3972 H            1 MK1902   0.0000
    70 H25         22.0211    15.1008     8.6008 H            1 MK1902   0.0000
    71 H26         23.2569    14.0354     8.6682 H            1 MK1902   0.0000
    72 H27         22.5235    11.5549     8.0178 H            1 MK1902   0.0000
    73 H28         21.0137     9.8952     8.8569 H            1 MK1902   0.0000
    74 H29         19.0675    10.5488    10.0623 H            1 MK1902   0.0000
    75 H30         18.6272    12.8653    10.4820 H            1 MK1902   0.0000
    76 H31         20.1305    14.5041     9.6496 H            1 MK1902   0.0000
    77 H32         21.3516    12.5941     5.4095 H            1 MK1902   0.0000
    78 H33         18.8062    13.9347     5.7459 H            1 MK1902   0.0000
    79 H34         18.4278    11.8399     6.5319 H            1 MK1902   0.0000
    80 H35         20.5384    11.1304     5.3765 H            1 MK1902   0.0000
    81 H36         16.7085    12.2817     5.1090 H            1 MK1902   0.0000
    82 H37         17.2195    10.8414     4.5337 H            1 MK1902   0.0000
    83 H38         16.6042    11.7903     1.8349 H            1 MK1902   0.0000
    84 H39         17.6696    13.1643     0.1953 H            1 MK1902   0.0000
    85 H40         19.4585    14.6080     0.7397 H            1 MK1902   0.0000
    86 H41         20.2772    14.7742     2.9430 H            1 MK1902   0.0000
    87 H42         21.8526    21.4627     2.4976 H            1 MK1902   0.0000
    88 H43         23.0349    21.7827     1.4176 H            1 MK1902   0.0000
    89 H44         24.9349    23.3687     2.2867 H            1 MK1902   0.0000
    90 H45         23.4036    26.4897     4.3708 H            1 MK1902   0.0000
    91 H46         21.4512    25.3020     4.7985 H            1 MK1902   0.0000
    92 H47         21.1600    23.0466     3.9816 H            1 MK1902   0.0000
    93 H48         24.5476    20.7484     2.6723 H            1 MK1902   0.0000
    94 H49         23.0218    17.9214     4.6304 H            1 MK1902   0.0000
@<TRIPOS>BOND
     1    1    2       1
     2    1   13       1
     3    1   39       1
     4    2    3       1
     5    3    4       1
     6    3   11       1
     7    4    5       2
     8    4    6      am
     9    6    7       1
    10    7    8       1
    11    7    9       1
    12    7   10       1
    13   11   12       1
    14   11   14       1
    15   12   13       1
    16   14   15       1
    17   15   16       1
    18   15   17       1
    19   17   18       1
    20   18   19       1
    21   18   26       1
    22   19   20       1
    23   20   21      ar
    24   20   25      ar
    25   21   22      ar
    26   22   23      ar
    27   23   24      ar
    28   24   25      ar
    29   26   27       2
    30   26   28      am
    31   28   29       1
    32   29   30       1
    33   29   38       1
    34   30   31       1
    35   30   32       1
    36   32   33       1
    37   33   34      ar
    38   33   38      ar
    39   34   35      ar
    40   35   36      ar
    41   36   37      ar
    42   37   38      ar
    43   39   40       1
    44   40   41      ar
    45   40   45      ar
    46   41   42      ar
    47   42   43      ar
    48   43   44      ar
    49   44   45      ar
    50    2   46       1
    51    2   47       1
    52    3   48       1
    53    6   49       1
    54    8   50       1
    55    8   51       1
    56    8   52       1
    57    9   53       1
    58    9   54       1
    59    9   55       1
    60   10   56       1
    61   10   57       1
    62   10   58       1
    63   12   59       1
    64   12   60       1
    65   13   61       1
    66   13   62       1
    67   14   63       1
    68   14   64       1
    69   15   65       1
    70   16   66       1
    71   17   67       1
    72   17   68       1
    73   18   69       1
    74   19   70       1
    75   19   71       1
    76   21   72       1
    77   22   73       1
    78   23   74       1
    79   24   75       1
    80   25   76       1
    81   28   77       1
    82   29   78       1
    83   30   79       1
    84   31   80       1
    85   32   81       1
    86   32   82       1
    87   34   83       1
    88   35   84       1
    89   36   85       1
    90   37   86       1
    91   39   87       1
    92   39   88       1
    93   41   89       1
    94   43   90       1
    95   44   91       1
    96   45   92       1
    97    1   93       1
    98   11   94       1
@<TRIPOS>SUBSTRUCTURE
     1 MK1902      1 GROUP             4 B     MK1     0 **** MK1 B 902
