#    Name: 48623
#    Modification time : Tue Aug  8 21:36:29 2017

@<TRIPOS>MOLECULE
48623
   60     0     9     0     0
SMALL
NO_CHARGES


@<TRIPOS>ATOM
      1 N          44.2690   -2.5300   27.0200 N.am      1 SEL1        0.0000 
      2 N          46.4660   -1.0080   27.5940 N.am      1 SEL1        0.0000 
      3 N          51.1110   -4.6880   35.2170 N.am      1 SEL1        0.0000 
      4 N          50.8770   -4.3220   32.9130 N.am      1 SEL1        0.0000 
      5 N          39.6510    1.2890   18.8570 N.am      1 SEL1        0.0000 
      6 N          40.0430    3.0610   17.4390 N.am      1 SEL1        0.0000 
      7 N          38.4930   -0.7850   15.5500 N.am      1 SEL1        0.0000 
      8 N          46.3550    1.4960   26.5760 N.am      1 SEL1        0.0000 
      9 N          44.0540    2.9490   26.8910 N.am      1 SEL1        0.0000 
     10 N          44.3240    0.2160   26.9530 N.am      1 SEL1        0.0000 
     11 O          47.9530   -4.4280   27.7480 O.2       2 ALL2        0.0000 
     12 O          48.6970   -5.7750   29.5750 O.2       2 ALL2        0.0000 
     13 CA         46.5730   -1.5400   28.8540 C.3       3 GLL5        0.0000 
     14 CA         37.4220   -6.1120   20.6280 C.3       3 GLL5        0.0000 
     15 CA         38.2600   -4.5940   22.9970 C.3       3 GLL5        0.0000 
     16 CA         41.1400    0.0790   21.6810 C.3       3 GLL5        0.0000 
     17 CA         41.6430    0.6690   23.0190 C.3       3 GLL5        0.0000 
     18 CA         43.1040    0.9230   22.9750 C.3       3 GLL5        0.0000 
     19 CA         43.6290    1.8360   24.0990 C.3       3 GLL5        0.0000 
     20 N          43.5150   -4.7780   25.5680 N.am      4 SEP1        0.0000 
     21 N          48.4170    1.7510   27.9110 N.am      4 SEP1        0.0000 
     22 N          53.2890   -4.9650   37.5580 N.am      4 SEP1        0.0000 
     23 N          52.9090   -6.7880   31.5240 N.am      4 SEP1        0.0000 
     24 N          40.9830    3.8930   19.9670 N.am      4 SEP1        0.0000 
     25 N          40.3860   -1.0970   13.8720 N.am      4 SEP1        0.0000 
     26 N          47.8670    4.2500   25.0590 N.am      4 SEP1        0.0000 
     27 N          41.7660    3.2220   28.7350 N.am      4 SEP1        0.0000 
     28 N          43.9170    1.5680   29.9520 N.am      4 SEP1        0.0000 
     29 O          50.8040   -6.0220   28.8710 O.2       5 ALP2        0.0000 
     30 O          51.4660   -3.9390   28.6660 O.2       5 ALP2        0.0000 
     31 CA         43.0430   -2.7400   30.8630 C.3       6 GLP5        0.0000 
     32 CA         35.7590   -8.6260   22.5490 C.3       6 GLP5        0.0000 
     33 CA         34.0380   -4.6420   22.9350 C.3       6 GLP5        0.0000 
     34 CA         39.0290   -7.3070   24.9770 C.3       6 GLP5        0.0000 
     35 CA         43.0990    1.8720   18.8230 C.3       6 GLP5        0.0000 
     36 CA         38.6950    0.5890   26.0440 C.3       6 GLP5        0.0000 
     37 CA         47.2540    3.2980   22.0190 C.3       6 GLP5        0.0000 
     38 CA         43.4020    5.5030   23.9420 C.3       6 GLP5        0.0000 
     39 N          43.8920   -3.6540   26.2940 N.am      7 SEC1        0.0000 
     40 N          47.4415    0.3715   27.7525 N.am      7 SEC1        0.0000 
     41 N          52.2000   -4.8265   36.3875 N.am      7 SEC1        0.0000 
     42 N          51.8930   -5.5550   32.2185 N.am      7 SEC1        0.0000 
     43 N          40.3170    2.5910   19.4120 N.am      7 SEC1        0.0000 
     44 N          40.5130    3.4770   18.7030 N.am      7 SEC1        0.0000 
     45 N          39.4395   -0.9410   14.7110 N.am      7 SEC1        0.0000 
     46 N          47.1110    2.8730   25.8175 N.am      7 SEC1        0.0000 
     47 N          42.9100    3.0855   27.8130 N.am      7 SEC1        0.0000 
     48 N          44.1205    0.8920   28.4525 N.am      7 SEC1        0.0000 
     49 O          49.3785   -5.2250   28.3095 O.2       8 ALC2        0.0000 
     50 O          50.0815   -4.8570   29.1205 O.2       8 ALC2        0.0000 
     51 CA         44.8080   -2.1400   29.8585 C.3       9 GLC5        0.0000 
     52 CA         36.5905   -7.3690   21.5885 C.3       9 GLC5        0.0000 
     53 CA         35.7300   -5.3770   21.7815 C.3       9 GLC5        0.0000 
     54 CA         38.6445   -5.9505   23.9870 C.3       9 GLC5        0.0000 
     55 CA         36.1490   -4.6180   22.9660 C.3       9 GLC5        0.0000 
     56 CA         42.1195    0.9755   20.2520 C.3       9 GLC5        0.0000 
     57 CA         40.1690    0.6290   24.5315 C.3       9 GLC5        0.0000 
     58 CA         43.1015    1.3975   20.8990 C.3       9 GLC5        0.0000 
     59 CA         45.4415    2.5670   23.0590 C.3       9 GLC5        0.0000 
     60 CA         43.5155    3.6695   24.0205 C.3       9 GLC5        0.0000 
@<TRIPOS>BOND
@<TRIPOS>SUBSTRUCTURE
     1 SEL1        1 GROUP        1 Z    SEL  0     ROOT SEL Z 0
     2 ALL2       11 GROUP        1 Z    ALL  0     **** ALL Z 1
     3 GLL5       13 GROUP        1 Z    GLL  0     **** GLL Z 4
     4 SEP1       20 GROUP        1 Z    SEP  0     **** SEP Z 7
     5 ALP2       29 GROUP        1 Z    ALP  0     **** ALP Z 8
     6 GLP5       31 GROUP        1 Z    GLP  0     **** GLP Z 11
     7 SEC1       39 GROUP        1 Z    SEC  0     **** SEC Z 14
     8 ALC2       49 GROUP        1 Z    ALC  0     **** ALC Z 15
     9 GLC5       51 GROUP        1 Z    GLC  0     **** GLC Z 18
@<TRIPOS>SET

