@<TRIPOS>MOLECULE
4rpj_FAD_1_ligand
   84    89     1     0     0
SMALL
NO_CHARGES


@<TRIPOS>ATOM
     1 PA          45.0950    -1.2030    26.7830 P.3          1 FAD401   0.0000
     2 O1A         45.8410    -1.0070    25.4610 O.co2        1 FAD401   0.0000
     3 O2A         44.2690    -2.5300    27.0200 O.co2        1 FAD401  -1.0000
     4 O5B         46.4660    -1.0080    27.5940 O.3          1 FAD401   0.0000
     5 C5B         46.5730    -1.5400    28.8540 C.3          1 FAD401   0.0000
     6 C4B         47.7300    -2.5190    29.1460 C.3          1 FAD401   0.0000
     7 O4B         48.1790    -2.4490    30.4850 O.3          1 FAD401   0.0000
     8 C3B         47.3510    -3.9420    28.8950 C.3          1 FAD401   0.0000
     9 O3B         47.9530    -4.4280    27.7480 O.3          1 FAD401   0.0000
    10 C2B         47.8510    -4.6890    29.9590 C.3          1 FAD401   0.0000
    11 O2B         48.6970    -5.7750    29.5750 O.3          1 FAD401   0.0000
    12 C1B         48.6870    -3.6990    30.7900 C.3          1 FAD401   0.0000
    13 N9A         48.5530    -3.8880    32.1920 N.pl3        1 FAD401   0.0000
    14 C8A         47.4060    -3.8210    32.8800 C.2          1 FAD401   0.0000
    15 N7A         47.6570    -4.0460    34.1830 N.2          1 FAD401   0.0000
    16 C5A         48.9710    -4.2530    34.3170 C.ar         1 FAD401   0.0000
    17 C6A         49.7870    -4.5260    35.4030 C.ar         1 FAD401   0.0000
    18 N6A         49.2510    -4.6310    36.6600 N.pl3        1 FAD401   0.0000
    19 N1A         51.1110    -4.6880    35.2170 N.ar         1 FAD401   0.0000
    20 C2A         51.6370    -4.5850    33.9810 C.ar         1 FAD401   0.0000
    21 N3A         50.8770    -4.3220    32.9130 N.ar         1 FAD401   0.0000
    22 C4A         49.5440    -4.1530    33.0550 C.ar         1 FAD401   0.0000
    23 N1          39.6510     1.2890    18.8570 N.2          1 FAD401   0.0000
    24 C2          39.6740     1.9130    17.5550 C.2          1 FAD401   0.0000
    25 O2          40.0430     3.0610    17.4390 O.2          1 FAD401   0.0000
    26 N3          39.2700     1.1800    16.4030 N.pl3        1 FAD401   0.0000
    27 C4          38.8420    -0.1560    16.5340 C.2          1 FAD401   0.0000
    28 O4          38.4930    -0.7850    15.5500 O.2          1 FAD401   0.0000
    29 C4X         38.8150    -0.7900    17.8620 C.2          1 FAD401   0.0000
    30 N5          38.4040    -2.0740    17.9890 N.2          1 FAD401   0.0000
    31 C5X         38.3840    -2.6450    19.2100 C.ar         1 FAD401   0.0000
    32 C6          37.9510    -3.9790    19.3080 C.ar         1 FAD401   0.0000
    33 C7          37.9140    -4.6080    20.5440 C.ar         1 FAD401   0.0000
    34 C7M         37.4220    -6.1120    20.6280 C.3          1 FAD401   0.0000
    35 C8          38.2990    -3.9280    21.6710 C.ar         1 FAD401   0.0000
    36 C8M         38.2600    -4.5940    22.9970 C.3          1 FAD401   0.0000
    37 C9          38.7280    -2.6050    21.5740 C.ar         1 FAD401   0.0000
    38 C9A         38.7650    -1.9710    20.3210 C.ar         1 FAD401   0.0000
    39 N10         39.1800    -0.6840    20.2140 N.pl3        1 FAD401   0.0000
    40 C10         39.2130    -0.0730    18.9880 C.2          1 FAD401   0.0000
    41 C1'         39.5820     0.0320    21.3630 C.3          1 FAD401   0.0000
    42 C2'         41.1400     0.0790    21.6810 C.3          1 FAD401   0.0000
    43 O2'         41.6810    -1.2130    21.4660 O.3          1 FAD401   0.0000
    44 C3'         41.6430     0.6690    23.0190 C.3          1 FAD401   0.0000
    45 O3'         41.0260     1.8500    23.2560 O.3          1 FAD401   0.0000
    46 C4'         43.1040     0.9230    22.9750 C.3          1 FAD401   0.0000
    47 O4'         43.9080    -0.3290    22.9440 O.3          1 FAD401   0.0000
    48 C5'         43.6290     1.8360    24.0990 C.3          1 FAD401   0.0000
    49 O5'         44.7770     1.4080    24.8410 O.3          1 FAD401   0.0000
    50 P           44.7810     1.6550    26.3570 P.3          1 FAD401   0.0000
    51 O1P         46.3550     1.4960    26.5760 O.co2        1 FAD401   0.0000
    52 O2P         44.0540     2.9490    26.8910 O.co2        1 FAD401  -1.0000
    53 O3P         44.3240     0.2160    26.9530 O.3          1 FAD401   0.0000
    54 H5B1        45.7201    -2.0270    29.0419 H            1 FAD401   0.0000
    55 H5B2        46.6668    -0.7744    29.4904 H            1 FAD401   0.0000
    56 H4B         48.4957    -2.2877    28.5458 H            1 FAD401   0.0000
    57 H3B         46.3571    -4.0356    28.8366 H            1 FAD401   0.0000
    58 H5          48.5300    -5.2109    27.9805 H            1 FAD401   0.0000
    59 H2B         47.0926    -5.0341    30.5120 H            1 FAD401   0.0000
    60 H7          49.6451    -5.4598    29.5317 H            1 FAD401   0.0000
    61 H1B         49.6498    -3.7538    30.5253 H            1 FAD401   0.0000
    62 H8A         46.5055    -3.6335    32.4877 H            1 FAD401   0.0000
    63 H6A1        49.8433    -4.8281    37.4412 H            1 FAD401   0.0000
    64 H6A2        48.2676    -4.5105    36.7959 H            1 FAD401   0.0000
    65 H2A         52.6218    -4.7085    33.8592 H            1 FAD401   0.0000
    66 H13         39.2900     1.6130    15.5018 H            1 FAD401   0.0000
    67 H14         37.6695    -4.4747    18.4864 H            1 FAD401   0.0000
    68 H7M1        37.4524    -6.4201    21.5789 H            1 FAD401   0.0000
    69 H7M2        36.4841    -6.1755    20.2869 H            1 FAD401   0.0000
    70 H7M3        38.0190    -6.6896    20.0712 H            1 FAD401   0.0000
    71 H8M1        38.5722    -3.9552    23.7002 H            1 FAD401   0.0000
    72 H8M2        37.3233    -4.8802    23.1988 H            1 FAD401   0.0000
    73 H8M3        38.8582    -5.3953    22.9853 H            1 FAD401   0.0000
    74 H21         39.0089    -2.1082    22.3951 H            1 FAD401   0.0000
    75 H1'1        39.1264    -0.3826    22.1507 H            1 FAD401   0.0000
    76 H1'2        39.2683     0.9753    21.2549 H            1 FAD401   0.0000
    77 H2'         41.5394     0.6564    20.9689 H            1 FAD401   0.0000
    78 H25         42.4589    -1.3548    22.0782 H            1 FAD401   0.0000
    79 H3'         41.4382     0.0315    23.7618 H            1 FAD401   0.0000
    80 H27         40.9444     1.9914    24.2426 H            1 FAD401   0.0000
    81 H4'         43.2845     1.3987    22.1141 H            1 FAD401   0.0000
    82 H29         44.8809    -0.0997    22.9150 H            1 FAD401   0.0000
    83 H5'1        42.8828     1.9593    24.7532 H            1 FAD401   0.0000
    84 H5'2        43.8566     2.7165    23.6832 H            1 FAD401   0.0000
@<TRIPOS>BOND
     1    1    2      ar
     2    1    3      ar
     3    1    4       1
     4    1   53       1
     5    4    5       1
     6    5    6       1
     7    6    7       1
     8    6    8       1
     9    7   12       1
    10    8    9       1
    11    8   10       1
    12   10   11       1
    13   10   12       1
    14   12   13       1
    15   13   14       1
    16   13   22       1
    17   14   15       2
    18   15   16       1
    19   16   17      ar
    20   16   22      ar
    21   17   18       1
    22   17   19      ar
    23   19   20      ar
    24   20   21      ar
    25   21   22      ar
    26   23   24       1
    27   23   40       2
    28   24   25       2
    29   24   26       1
    30   26   27       1
    31   27   28       2
    32   27   29       1
    33   29   30       2
    34   29   40       1
    35   30   31       1
    36   31   32      ar
    37   31   38      ar
    38   32   33      ar
    39   33   34       1
    40   33   35      ar
    41   35   36       1
    42   35   37      ar
    43   37   38      ar
    44   38   39       1
    45   39   40       1
    46   39   41       1
    47   41   42       1
    48   42   43       1
    49   42   44       1
    50   44   45       1
    51   44   46       1
    52   46   47       1
    53   46   48       1
    54   48   49       1
    55   49   50       1
    56   50   51      ar
    57   50   52      ar
    58   50   53       1
    59   48   84       1
    60    5   54       1
    61    5   55       1
    62    6   56       1
    63    8   57       1
    64    9   58       1
    65   10   59       1
    66   11   60       1
    67   12   61       1
    68   14   62       1
    69   18   63       1
    70   18   64       1
    71   20   65       1
    72   26   66       1
    73   32   67       1
    74   34   68       1
    75   34   69       1
    76   34   70       1
    77   36   71       1
    78   36   72       1
    79   36   73       1
    80   37   74       1
    81   41   75       1
    82   41   76       1
    83   42   77       1
    84   43   78       1
    85   44   79       1
    86   45   80       1
    87   46   81       1
    88   47   82       1
    89   48   83       1
@<TRIPOS>SUBSTRUCTURE
     1 FAD401      1 GROUP             4 A     FAD     0 **** FAD A 401
