4rpj_FAD_1_ligand
  -OEChem-08111718373D

 84 89  0     1  0  0  0  0  0999 V2000
   37.6695   -4.4747   18.4864 H   0  0  0  0  0  0  0  0  0  0  0  0
   39.0089   -2.1082   22.3951 H   0  0  0  0  0  0  0  0  0  0  0  0
   52.6218   -4.7085   33.8592 H   0  0  0  0  0  0  0  0  0  0  0  0
   46.5055   -3.6335   32.4877 H   0  0  0  0  0  0  0  0  0  0  0  0
   46.3571   -4.0356   28.8366 H   0  0  0  0  0  0  0  0  0  0  0  0
   47.0926   -5.0341   30.5120 H   0  0  0  0  0  0  0  0  0  0  0  0
   48.4957   -2.2877   28.5458 H   0  0  0  0  0  0  0  0  0  0  0  0
   49.6498   -3.7538   30.5253 H   0  0  0  0  0  0  0  0  0  0  0  0
   37.4524   -6.4201   21.5789 H   0  0  0  0  0  0  0  0  0  0  0  0
   36.4841   -6.1755   20.2869 H   0  0  0  0  0  0  0  0  0  0  0  0
   38.0190   -6.6896   20.0712 H   0  0  0  0  0  0  0  0  0  0  0  0
   38.5722   -3.9552   23.7002 H   0  0  0  0  0  0  0  0  0  0  0  0
   37.3233   -4.8802   23.1988 H   0  0  0  0  0  0  0  0  0  0  0  0
   38.8582   -5.3953   22.9853 H   0  0  0  0  0  0  0  0  0  0  0  0
   45.7201   -2.0270   29.0419 H   0  0  0  0  0  0  0  0  0  0  0  0
   46.6668   -0.7744   29.4904 H   0  0  0  0  0  0  0  0  0  0  0  0
   39.1264   -0.3826   22.1507 H   0  0  0  0  0  0  0  0  0  0  0  0
   39.2683    0.9753   21.2549 H   0  0  0  0  0  0  0  0  0  0  0  0
   42.8828    1.9593   24.7532 H   0  0  0  0  0  0  0  0  0  0  0  0
   43.8566    2.7165   23.6832 H   0  0  0  0  0  0  0  0  0  0  0  0
   41.5394    0.6564   20.9689 H   0  0  0  0  0  0  0  0  0  0  0  0
   43.2845    1.3987   22.1141 H   0  0  0  0  0  0  0  0  0  0  0  0
   41.4382    0.0315   23.7618 H   0  0  0  0  0  0  0  0  0  0  0  0
   39.2900    1.6130   15.5018 H   0  0  0  0  0  0  0  0  0  0  0  0
   49.8433   -4.8281   37.4412 H   0  0  0  0  0  0  0  0  0  0  0  0
   48.2676   -4.5105   36.7959 H   0  0  0  0  0  0  0  0  0  0  0  0
   48.5300   -5.2109   27.9805 H   0  0  0  0  0  0  0  0  0  0  0  0
   49.6451   -5.4598   29.5317 H   0  0  0  0  0  0  0  0  0  0  0  0
   42.4589   -1.3548   22.0782 H   0  0  0  0  0  0  0  0  0  0  0  0
   44.8809   -0.0997   22.9150 H   0  0  0  0  0  0  0  0  0  0  0  0
   40.9444    1.9914   24.2426 H   0  0  0  0  0  0  0  0  0  0  0  0
   37.9510   -3.9790   19.3080 C   0  0  0  0  0  0  0  0  0  0  0  0
   38.7280   -2.6050   21.5740 C   0  0  0  0  0  0  0  0  0  0  0  0
   51.6370   -4.5850   33.9810 C   0  0  0  0  0  0  0  0  0  0  0  0
   47.4060   -3.8210   32.8800 C   0  0  0  0  0  0  0  0  0  0  0  0
   37.9140   -4.6080   20.5440 C   0  0  0  0  0  0  0  0  0  0  0  0
   38.2990   -3.9280   21.6710 C   0  0  0  0  0  0  0  0  0  0  0  0
   38.3840   -2.6450   19.2100 C   0  0  0  0  0  0  0  0  0  0  0  0
   48.9710   -4.2530   34.3170 C   0  0  0  0  0  0  0  0  0  0  0  0
   38.7650   -1.9710   20.3210 C   0  0  0  0  0  0  0  0  0  0  0  0
   38.8150   -0.7900   17.8620 C   0  0  0  0  0  0  0  0  0  0  0  0
   49.5440   -4.1530   33.0550 C   0  0  0  0  0  0  0  0  0  0  0  0
   49.7870   -4.5260   35.4030 C   0  0  0  0  0  0  0  0  0  0  0  0
   38.8420   -0.1560   16.5340 C   0  0  0  0  0  0  0  0  0  0  0  0
   39.2130   -0.0730   18.9880 C   0  0  0  0  0  0  0  0  0  0  0  0
   39.6740    1.9130   17.5550 C   0  0  0  0  0  0  0  0  0  0  0  0
   47.3510   -3.9420   28.8950 C   0  0  1  0  0  0  0  0  0  0  0  0
   47.8510   -4.6890   29.9590 C   0  0  2  0  0  0  0  0  0  0  0  0
   47.7300   -2.5190   29.1460 C   0  0  1  0  0  0  0  0  0  0  0  0
   48.6870   -3.6990   30.7900 C   0  0  2  0  0  0  0  0  0  0  0  0
   37.4220   -6.1120   20.6280 C   0  0  0  0  0  0  0  0  0  0  0  0
   38.2600   -4.5940   22.9970 C   0  0  0  0  0  0  0  0  0  0  0  0
   46.5730   -1.5400   28.8540 C   0  0  1  0  0  0  0  0  0  0  0  0
   39.5820    0.0320   21.3630 C   0  0  1  0  0  0  0  0  0  0  0  0
   43.6290    1.8360   24.0990 C   0  0  2  0  0  0  0  0  0  0  0  0
   41.1400    0.0790   21.6810 C   0  0  1  0  0  0  0  0  0  0  0  0
   43.1040    0.9230   22.9750 C   0  0  2  0  0  0  0  0  0  0  0  0
   41.6430    0.6690   23.0190 C   0  0  1  0  0  0  0  0  0  0  0  0
   50.8770   -4.3220   32.9130 N   0  0  0  0  0  0  0  0  0  0  0  0
   51.1110   -4.6880   35.2170 N   0  0  0  0  0  0  0  0  0  0  0  0
   47.6570   -4.0460   34.1830 N   0  0  0  0  0  0  0  0  0  0  0  0
   38.4040   -2.0740   17.9890 N   0  0  0  0  0  0  0  0  0  0  0  0
   39.6510    1.2890   18.8570 N   0  0  0  0  0  0  0  0  0  0  0  0
   39.2700    1.1800   16.4030 N   0  0  0  0  0  0  0  0  0  0  0  0
   48.5530   -3.8880   32.1920 N   0  0  0  0  0  0  0  0  0  0  0  0
   39.1800   -0.6840   20.2140 N   0  0  0  0  0  0  0  0  0  0  0  0
   49.2510   -4.6310   36.6600 N   0  0  0  0  0  0  0  0  0  0  0  0
   44.2690   -2.5300   27.0200 O   0  5  0  0  0  0  0  0  0  0  0  0
   44.0540    2.9490   26.8910 O   0  5  0  0  0  0  0  0  0  0  0  0
   38.4930   -0.7850   15.5500 O   0  0  0  0  0  0  0  0  0  0  0  0
   40.0430    3.0610   17.4390 O   0  0  0  0  0  0  0  0  0  0  0  0
   45.8410   -1.0070   25.4610 O   0  0  0  0  0  0  0  0  0  0  0  0
   46.3550    1.4960   26.5760 O   0  0  0  0  0  0  0  0  0  0  0  0
   48.1790   -2.4490   30.4850 O   0  0  0  0  0  0  0  0  0  0  0  0
   47.9530   -4.4280   27.7480 O   0  0  0  0  0  0  0  0  0  0  0  0
   48.6970   -5.7750   29.5750 O   0  0  0  0  0  0  0  0  0  0  0  0
   41.6810   -1.2130   21.4660 O   0  0  0  0  0  0  0  0  0  0  0  0
   43.9080   -0.3290   22.9440 O   0  0  0  0  0  0  0  0  0  0  0  0
   41.0260    1.8500   23.2560 O   0  0  0  0  0  0  0  0  0  0  0  0
   46.4660   -1.0080   27.5940 O   0  0  0  0  0  0  0  0  0  0  0  0
   44.7770    1.4080   24.8410 O   0  0  0  0  0  0  0  0  0  0  0  0
   44.3240    0.2160   26.9530 O   0  0  0  0  0  0  0  0  0  0  0  0
   45.0950   -1.2030   26.7830 P   0  0  2  0  0  0  0  0  0  0  0  0
   44.7810    1.6550   26.3570 P   0  0  2  0  0  0  0  0  0  0  0  0
  1 32  1  0  0  0  0
  2 33  1  0  0  0  0
  3 34  1  0  0  0  0
  4 35  1  0  0  0  0
  5 47  1  0  0  0  0
  6 48  1  0  0  0  0
  7 49  1  0  0  0  0
  8 50  1  0  0  0  0
  9 51  1  0  0  0  0
 10 51  1  0  0  0  0
 11 51  1  0  0  0  0
 12 52  1  0  0  0  0
 13 52  1  0  0  0  0
 14 52  1  0  0  0  0
 15 53  1  0  0  0  0
 16 53  1  0  0  0  0
 17 54  1  0  0  0  0
 18 54  1  0  0  0  0
 19 55  1  0  0  0  0
 20 55  1  0  0  0  0
 21 56  1  0  0  0  0
 22 57  1  0  0  0  0
 23 58  1  0  0  0  0
 24 64  1  0  0  0  0
 25 67  1  0  0  0  0
 26 67  1  0  0  0  0
 27 75  1  0  0  0  0
 28 76  1  0  0  0  0
 29 77  1  0  0  0  0
 30 78  1  0  0  0  0
 31 79  1  0  0  0  0
 32 36  1  0  0  0  0
 32 38  2  0  0  0  0
 33 37  1  0  0  0  0
 33 40  2  0  0  0  0
 34 59  1  0  0  0  0
 34 60  2  0  0  0  0
 35 61  2  0  0  0  0
 35 65  1  0  0  0  0
 36 37  2  0  0  0  0
 36 51  1  0  0  0  0
 37 52  1  0  0  0  0
 38 40  1  0  0  0  0
 38 62  1  0  0  0  0
 39 42  1  0  0  0  0
 39 43  2  0  0  0  0
 39 61  1  0  0  0  0
 40 66  1  0  0  0  0
 41 44  1  0  0  0  0
 41 45  1  0  0  0  0
 41 62  2  0  0  0  0
 42 59  2  0  0  0  0
 42 65  1  0  0  0  0
 43 60  1  0  0  0  0
 43 67  1  0  0  0  0
 44 64  1  0  0  0  0
 44 70  2  0  0  0  0
 45 63  2  0  0  0  0
 45 66  1  0  0  0  0
 46 63  1  0  0  0  0
 46 64  1  0  0  0  0
 46 71  2  0  0  0  0
 47 48  1  0  0  0  0
 47 49  1  0  0  0  0
 47 75  1  0  0  0  0
 48 50  1  0  0  0  0
 48 76  1  0  0  0  0
 49 53  1  0  0  0  0
 49 74  1  0  0  0  0
 50 65  1  0  0  0  0
 50 74  1  0  0  0  0
 53 80  1  0  0  0  0
 54 56  1  0  0  0  0
 54 66  1  0  0  0  0
 55 57  1  0  0  0  0
 55 81  1  0  0  0  0
 56 58  1  0  0  0  0
 56 77  1  0  0  0  0
 57 58  1  0  0  0  0
 57 78  1  0  0  0  0
 58 79  1  0  0  0  0
 68 83  1  0  0  0  0
 69 84  1  0  0  0  0
 72 83  2  0  0  0  0
 73 84  2  0  0  0  0
 80 83  1  0  0  0  0
 81 84  1  0  0  0  0
 82 83  1  0  0  0  0
 82 84  1  0  0  0  0
M  CHG  2  68  -1  69  -1
M  END
> <scpdb_id>
4rpj_1

$$$$
