#    Name: 20676
#    Modification time : Tue Aug  8 21:31:43 2017

@<TRIPOS>MOLECULE
20676
   39     0     9     0     0
SMALL
NO_CHARGES


@<TRIPOS>ATOM
      1 N          18.7110  -24.6560   39.9130 N.am      1 SEL1        0.0000 
      2 O          17.8270  -24.2100   40.8230 O.2       2 ALL2        0.0000 
      3 O          20.9810  -25.3900   40.0140 O.2       2 ALL2        0.0000 
      4 CA         17.5470  -23.7030   43.2280 C.3       3 GLL5        0.0000 
      5 CA         23.4420  -25.1590   46.0230 C.3       3 GLL5        0.0000 
      6 CA         22.9220  -25.0090   44.6120 C.3       3 GLL5        0.0000 
      7 CA         22.1400  -19.6540   43.9750 C.3       3 GLL5        0.0000 
      8 CA         23.0340  -26.4490   38.0390 C.3       3 GLL5        0.0000 
      9 CA         23.1950  -26.1370   39.7400 C.3       3 GLL5        0.0000 
     10 N          17.9250  -24.6770   37.2150 N.am      4 SEP1        0.0000 
     11 O          15.2620  -24.4980   39.8490 O.2       5 ALP2        0.0000 
     12 O          20.7330  -24.7320   36.7420 O.2       5 ALP2        0.0000 
     13 CA         16.5430  -27.1050   42.2670 C.3       6 GLP5        0.0000 
     14 CA         15.2830  -20.7770   40.8980 C.3       6 GLP5        0.0000 
     15 CA         19.6950  -21.1300   41.0250 C.3       6 GLP5        0.0000 
     16 CA         15.4260  -24.2670   45.9340 C.3       6 GLP5        0.0000 
     17 CA         19.9980  -26.4730   47.9070 C.3       6 GLP5        0.0000 
     18 CA         22.7990  -29.1960   43.3910 C.3       6 GLP5        0.0000 
     19 CA         20.2340  -27.6270   46.9490 C.3       6 GLP5        0.0000 
     20 CA         23.4900  -16.2400   46.3820 C.3       6 GLP5        0.0000 
     21 CA         20.0830  -19.0660   47.6010 C.3       6 GLP5        0.0000 
     22 CA         20.1130  -28.5600   37.9880 C.3       6 GLP5        0.0000 
     23 CA         21.0770  -20.6490   40.6320 C.3       6 GLP5        0.0000 
     24 CA         22.9760  -29.7160   40.9500 C.3       6 GLP5        0.0000 
     25 N          18.3180  -24.6665   38.5640 N.am      7 SEC1        0.0000 
     26 O          16.5445  -24.3540   40.3360 O.2       8 ALC2        0.0000 
     27 O          20.8570  -25.0610   38.3780 O.2       8 ALC2        0.0000 
     28 CA         17.0450  -25.4040   42.7475 C.3       9 GLC5        0.0000 
     29 CA         16.4150  -22.2400   42.0630 C.3       9 GLC5        0.0000 
     30 CA         18.6210  -22.4165   42.1265 C.3       9 GLC5        0.0000 
     31 CA         16.4865  -23.9850   44.5810 C.3       9 GLC5        0.0000 
     32 CA         21.7200  -25.8160   46.9650 C.3       9 GLC5        0.0000 
     33 CA         22.8605  -27.1025   44.0015 C.3       9 GLC5        0.0000 
     34 CA         21.5780  -26.3180   45.7805 C.3       9 GLC5        0.0000 
     35 CA         22.8150  -17.9470   45.1785 C.3       9 GLC5        0.0000 
     36 CA         21.1115  -19.3600   45.7880 C.3       9 GLC5        0.0000 
     37 CA         21.5735  -27.5045   38.0135 C.3       9 GLC5        0.0000 
     38 CA         21.6588  -20.4808   42.3447 C.3       9 GLC5        0.0000 
     39 CA         23.0452  -28.0045   39.9198 C.3       9 GLC5        0.0000 
@<TRIPOS>BOND
@<TRIPOS>SUBSTRUCTURE
     1 SEL1        1 GROUP        1 Z    SEL  0     ROOT SEL Z 0
     2 ALL2        2 GROUP        1 Z    ALL  0     **** ALL Z 1
     3 GLL5        4 GROUP        1 Z    GLL  0     **** GLL Z 4
     4 SEP1       10 GROUP        1 Z    SEP  0     **** SEP Z 7
     5 ALP2       11 GROUP        1 Z    ALP  0     **** ALP Z 8
     6 GLP5       13 GROUP        1 Z    GLP  0     **** GLP Z 11
     7 SEC1       25 GROUP        1 Z    SEC  0     **** SEC Z 14
     8 ALC2       26 GROUP        1 Z    ALC  0     **** ALC Z 15
     9 GLC5       28 GROUP        1 Z    GLC  0     **** GLC Z 18
@<TRIPOS>SET

