2xa4_AZ5_2_ligand
  -OEChem-08111718373D

 38 40  0     1  0  0  0  0  0999 V2000
   20.3088  -24.7163   42.7111 H   0  0  0  0  0  0  0  0  0  0  0  0
   20.4393  -21.4003   44.7838 H   0  0  0  0  0  0  0  0  0  0  0  0
   24.2938  -20.9661   43.5354 H   0  0  0  0  0  0  0  0  0  0  0  0
   25.2494  -26.7770   39.7425 H   0  0  0  0  0  0  0  0  0  0  0  0
   16.6302  -23.4541   42.9157 H   0  0  0  0  0  0  0  0  0  0  0  0
   17.4807  -24.4329   43.9084 H   0  0  0  0  0  0  0  0  0  0  0  0
   17.9878  -22.9044   43.6378 H   0  0  0  0  0  0  0  0  0  0  0  0
   23.6055  -26.1263   46.2169 H   0  0  0  0  0  0  0  0  0  0  0  0
   24.2978  -24.6505   46.1187 H   0  0  0  0  0  0  0  0  0  0  0  0
   22.7668  -24.7994   46.6671 H   0  0  0  0  0  0  0  0  0  0  0  0
   22.0598  -25.5025   44.4978 H   0  0  0  0  0  0  0  0  0  0  0  0
   16.8912  -23.9369   40.6000 H   0  0  0  0  0  0  0  0  0  0  0  0
   20.8982  -25.5693   39.0337 H   0  0  0  0  0  0  0  0  0  0  0  0
   24.8352  -25.6638   44.0050 H   0  0  0  0  0  0  0  0  0  0  0  0
   19.6410  -24.6200   41.9730 C   0  0  0  0  0  0  0  0  0  0  0  0
   21.3330  -21.8000   44.5800 C   0  0  0  0  0  0  0  0  0  0  0  0
   23.5490  -21.5480   43.8620 C   0  0  0  0  0  0  0  0  0  0  0  0
   24.5040  -26.4130   40.3010 C   0  0  0  0  0  0  0  0  0  0  0  0
   22.3410  -20.9710   44.1400 C   0  0  0  0  0  0  0  0  0  0  0  0
   23.1950  -26.1370   39.7400 C   0  0  0  0  0  0  0  0  0  0  0  0
   18.3460  -24.1710   42.0820 C   0  0  0  0  0  0  0  0  0  0  0  0
   19.8370  -24.9190   40.5990 C   0  0  0  0  0  0  0  0  0  0  0  0
   22.2320  -25.6620   40.5390 C   0  0  0  0  0  0  0  0  0  0  0  0
   22.7200  -23.5580   44.4420 C   0  0  0  0  0  0  0  0  0  0  0  0
   23.6770  -25.6910   42.3260 C   0  0  0  0  0  0  0  0  0  0  0  0
   17.5470  -23.7030   43.2280 C   0  0  0  0  0  0  0  0  0  0  0  0
   23.4420  -25.1590   46.0230 C   0  0  0  0  0  0  0  0  0  0  0  0
   22.9220  -25.0090   44.6120 C   0  0  2  0  0  0  0  0  0  0  0  0
   21.4980  -23.1140   44.7460 N   0  0  0  0  0  0  0  0  0  0  0  0
   23.7760  -22.8540   44.0080 N   0  0  0  0  0  0  0  0  0  0  0  0
   24.6650  -26.1510   41.6260 N   0  0  0  0  0  0  0  0  0  0  0  0
   22.4360  -25.4470   41.7710 N   0  0  0  0  0  0  0  0  0  0  0  0
   18.7110  -24.6560   39.9130 N   0  0  0  0  0  0  0  0  0  0  0  0
   17.8270  -24.2100   40.8230 N   0  0  0  0  0  0  0  0  0  0  0  0
   20.9810  -25.3900   40.0140 N   0  0  0  0  0  0  0  0  0  0  0  0
   23.9140  -25.4800   43.6620 N   0  0  0  0  0  0  0  0  0  0  0  0
   22.1400  -19.6540   43.9750 F   0  0  0  0  0  0  0  0  0  0  0  0
   23.0340  -26.4490   38.0390 Cl  0  0  0  0  0  0  0  0  0  0  0  0
  1 15  1  0  0  0  0
  2 16  1  0  0  0  0
  3 17  1  0  0  0  0
  4 18  1  0  0  0  0
  5 26  1  0  0  0  0
  6 26  1  0  0  0  0
  7 26  1  0  0  0  0
  8 27  1  0  0  0  0
  9 27  1  0  0  0  0
 10 27  1  0  0  0  0
 11 28  1  0  0  0  0
 12 34  1  0  0  0  0
 13 35  1  0  0  0  0
 14 36  1  0  0  0  0
 15 21  2  0  0  0  0
 15 22  1  0  0  0  0
 16 19  2  0  0  0  0
 16 29  1  0  0  0  0
 17 19  1  0  0  0  0
 17 30  2  0  0  0  0
 18 20  2  0  0  0  0
 18 31  1  0  0  0  0
 19 37  1  0  0  0  0
 20 23  1  0  0  0  0
 20 38  1  0  0  0  0
 21 26  1  0  0  0  0
 21 34  1  0  0  0  0
 22 33  2  0  0  0  0
 22 35  1  0  0  0  0
 23 32  2  0  0  0  0
 23 35  1  0  0  0  0
 24 28  1  0  0  0  0
 24 29  2  0  0  0  0
 24 30  1  0  0  0  0
 25 31  2  0  0  0  0
 25 32  1  0  0  0  0
 25 36  1  0  0  0  0
 27 28  1  0  0  0  0
 28 36  1  0  0  0  0
 33 34  1  0  0  0  0
M  END
> <scpdb_id>
2xa4_2

$$$$
