@<TRIPOS>MOLECULE
2xa4_AZ5_2_ligand
   38    40     1     0     0
SMALL
NO_CHARGES


@<TRIPOS>ATOM
     1 C3          19.6410   -24.6200    41.9730 C.2          1 AZ52132   0.0000
     2 C19         21.3330   -21.8000    44.5800 C.ar         1 AZ52132   0.0000
     3 C21         23.5490   -21.5480    43.8620 C.ar         1 AZ52132   0.0000
     4 C10         24.5040   -26.4130    40.3010 C.ar         1 AZ52132   0.0000
     5 C20         22.3410   -20.9710    44.1400 C.ar         1 AZ52132   0.0000
     6 C9          23.1950   -26.1370    39.7400 C.ar         1 AZ52132   0.0000
     7 C2          18.3460   -24.1710    42.0820 C.2          1 AZ52132   0.0000
     8 C4          19.8370   -24.9190    40.5990 C.2          1 AZ52132   0.0000
     9 C8          22.2320   -25.6620    40.5390 C.ar         1 AZ52132   0.0000
    10 C17         22.7200   -23.5580    44.4420 C.ar         1 AZ52132   0.0000
    11 C12         23.6770   -25.6910    42.3260 C.ar         1 AZ52132   0.0000
    12 C1          17.5470   -23.7030    43.2280 C.3          1 AZ52132   0.0000
    13 C16         23.4420   -25.1590    46.0230 C.3          1 AZ52132   0.0000
    14 C15         22.9220   -25.0090    44.6120 C.3          1 AZ52132   0.0000
    15 N18         21.4980   -23.1140    44.7460 N.ar         1 AZ52132   0.0000
    16 N22         23.7760   -22.8540    44.0080 N.ar         1 AZ52132   0.0000
    17 N11         24.6650   -26.1510    41.6260 N.ar         1 AZ52132   0.0000
    18 N13         22.4360   -25.4470    41.7710 N.ar         1 AZ52132   0.0000
    19 N5          18.7110   -24.6560    39.9130 N.2          1 AZ52132   0.0000
    20 N6          17.8270   -24.2100    40.8230 N.pl3        1 AZ52132   0.0000
    21 N7          20.9810   -25.3900    40.0140 N.pl3        1 AZ52132   0.0000
    22 N14         23.9140   -25.4800    43.6620 N.pl3        1 AZ52132   0.0000
    23 F23         22.1400   -19.6540    43.9750 F            1 AZ52132   0.0000
    24 CL2         23.0340   -26.4490    38.0390 Cl           1 AZ52132   0.0000
    25 H1          20.3088   -24.7163    42.7111 H            1 AZ52132   0.0000
    26 H2          20.4393   -21.4003    44.7838 H            1 AZ52132   0.0000
    27 H3          24.2938   -20.9661    43.5354 H            1 AZ52132   0.0000
    28 H4          25.2494   -26.7770    39.7425 H            1 AZ52132   0.0000
    29 H5          16.6302   -23.4541    42.9157 H            1 AZ52132   0.0000
    30 H6          17.4807   -24.4329    43.9084 H            1 AZ52132   0.0000
    31 H7          17.9878   -22.9044    43.6378 H            1 AZ52132   0.0000
    32 H8          23.6055   -26.1263    46.2169 H            1 AZ52132   0.0000
    33 H9          24.2978   -24.6505    46.1187 H            1 AZ52132   0.0000
    34 H10         22.7668   -24.7994    46.6671 H            1 AZ52132   0.0000
    35 H11         22.0598   -25.5025    44.4978 H            1 AZ52132   0.0000
    36 H12         20.8982   -25.5693    39.0337 H            1 AZ52132   0.0000
    37 H13         24.8352   -25.6638    44.0050 H            1 AZ52132   0.0000
    38 H14         16.8912   -23.9369    40.6000 H            1 AZ52132   0.0000
@<TRIPOS>BOND
     1    1    7       2
     2    1    8       1
     3    2    5      ar
     4    2   15      ar
     5    3    5      ar
     6    3   16      ar
     7    4    6      ar
     8    4   17      ar
     9    5   23       1
    10    6    9      ar
    11    6   24       1
    12    7   12       1
    13    7   20       1
    14    8   19       2
    15    8   21       1
    16    9   18      ar
    17    9   21       1
    18   10   14       1
    19   10   15      ar
    20   10   16      ar
    21   11   17      ar
    22   11   18      ar
    23   11   22       1
    24   13   14       1
    25   14   22       1
    26   19   20       1
    27    1   25       1
    28    2   26       1
    29    3   27       1
    30    4   28       1
    31   12   29       1
    32   12   30       1
    33   12   31       1
    34   13   32       1
    35   13   33       1
    36   13   34       1
    37   14   35       1
    38   20   38       1
    39   21   36       1
    40   22   37       1
@<TRIPOS>SUBSTRUCTURE
     1 AZ52132     1 GROUP             4 B     AZ5     0 **** AZ5 B2132
