#    Name: 27835
#    Modification time : Tue Aug  8 19:28:13 2017

@<TRIPOS>MOLECULE
27835
   42     0     9     0     0
SMALL
NO_CHARGES


@<TRIPOS>ATOM
      1 N          19.9280    4.1560   41.2800 N.am      1 SEL1        0.0000 
      2 N          17.0550   -2.5810   42.7540 N.am      1 SEL1        0.0000 
      3 N          15.4130   -0.6210   37.1860 N.am      1 SEL1        0.0000 
      4 N          17.1180   -1.7090   37.7530 N.am      1 SEL1        0.0000 
      5 O          20.6030    6.2310   43.1260 O.2       2 ALL2        0.0000 
      6 O          15.6250   -1.5010   44.1150 O.2       2 ALL2        0.0000 
      7 CA         22.9160    1.1900   41.1750 C.3       3 GLL5        0.0000 
      8 CA         23.2110    0.2060   42.3130 C.3       3 GLL5        0.0000 
      9 CA         17.5580   -0.2970   43.2980 C.3       3 GLL5        0.0000 
     10 CA         18.1510    1.3610   37.5510 C.3       3 GLL5        0.0000 
     11 CA         17.7170    1.4540   36.0900 C.3       3 GLL5        0.0000 
     12 CA         19.5790    3.5320   37.5530 C.3       3 GLL5        0.0000 
     13 N          17.6220    5.8200   40.7260 N.am      4 SEP1        0.0000 
     14 N          15.5990   -4.8390   41.9450 N.am      4 SEP1        0.0000 
     15 N          13.8480   -2.8250   36.0520 N.am      4 SEP1        0.0000 
     16 N          14.0380    1.6730   37.3920 N.am      4 SEP1        0.0000 
     17 N          19.4130   -2.6680   36.2980 N.am      4 SEP1        0.0000 
     18 N          16.4550   -3.8390   39.1340 N.am      4 SEP1        0.0000 
     19 O          21.6900    8.0230   40.6760 O.2       5 ALP2        0.0000 
     20 O          14.8550   -4.4450   44.5470 O.2       5 ALP2        0.0000 
     21 CA         22.2840    0.7050   36.9280 C.3       6 GLP5        0.0000 
     22 CA         20.6140   -2.7360   43.9970 C.3       6 GLP5        0.0000 
     23 CA         25.0940   -3.1830   43.3120 C.3       6 GLP5        0.0000 
     24 CA         19.8570   -2.2610   45.5520 C.3       6 GLP5        0.0000 
     25 CA         20.3730    0.7250   32.9060 C.3       6 GLP5        0.0000 
     26 CA         23.2560    4.9630   38.1730 C.3       6 GLP5        0.0000 
     27 N          18.7750    4.9880   41.0030 N.am      7 SEC1        0.0000 
     28 N          16.3270   -3.7100   42.3495 N.am      7 SEC1        0.0000 
     29 N          14.6305   -1.7230   36.6190 N.am      7 SEC1        0.0000 
     30 N          14.7255    0.5260   37.2890 N.am      7 SEC1        0.0000 
     31 N          18.2655   -2.1885   37.0255 N.am      7 SEC1        0.0000 
     32 N          16.7865   -2.7740   38.4435 N.am      7 SEC1        0.0000 
     33 O          21.1465    7.1270   41.9010 O.2       8 ALC2        0.0000 
     34 O          15.2400   -2.9730   44.3310 O.2       8 ALC2        0.0000 
     35 CA         22.6000    0.9475   39.0515 C.3       9 GLC5        0.0000 
     36 CA         21.9125   -1.2650   43.1550 C.3       9 GLC5        0.0000 
     37 CA         24.1525   -1.4885   42.8125 C.3       9 GLC5        0.0000 
     38 CA         18.7075   -1.2790   44.4250 C.3       9 GLC5        0.0000 
     39 CA         20.2175    1.0330   37.2395 C.3       9 GLC5        0.0000 
     40 CA         19.0450    1.0895   34.4980 C.3       9 GLC5        0.0000 
     41 CA         20.9315    2.1185   37.2405 C.3       9 GLC5        0.0000 
     42 CA         21.4175    4.2475   37.8630 C.3       9 GLC5        0.0000 
@<TRIPOS>BOND
@<TRIPOS>SUBSTRUCTURE
     1 SEL1        1 GROUP        1 Z    SEL  0     ROOT SEL Z 0
     2 ALL2        5 GROUP        1 Z    ALL  0     **** ALL Z 1
     3 GLL5        7 GROUP        1 Z    GLL  0     **** GLL Z 4
     4 SEP1       13 GROUP        1 Z    SEP  0     **** SEP Z 7
     5 ALP2       19 GROUP        1 Z    ALP  0     **** ALP Z 8
     6 GLP5       21 GROUP        1 Z    GLP  0     **** GLP Z 11
     7 SEC1       27 GROUP        1 Z    SEC  0     **** SEC Z 14
     8 ALC2       33 GROUP        1 Z    ALC  0     **** ALC Z 15
     9 GLC5       35 GROUP        1 Z    GLC  0     **** GLC Z 18
@<TRIPOS>SET

