@<TRIPOS>MOLECULE
3iqi_ASN_GLU_ASN_ILE_1_ligand
   65    64     4     0     0
SMALL
NO_CHARGES


@<TRIPOS>ATOM
     1 N           20.6030     6.2310    43.1260 N.4          1 ASN264   1.0000
     2 CA          20.7450     4.7870    43.4690 C.3          1 ASN264   0.0000
     3 C           20.6470     3.8610    42.2450 C.2          1 ASN264   0.0000
     4 O           19.9280     4.1560    41.2800 O.2          1 ASN264   0.0000
     5 CB          19.7310     4.4140    44.5580 C.3          1 ASN264   0.0000
     6 CG          19.4910     2.9250    44.6570 C.2          1 ASN264   0.0000
     7 OD1         18.7370     2.3640    43.8720 O.2          1 ASN264   0.0000
     8 ND2         20.1120     2.2820    45.6450 N.am         1 ASN264   0.0000
     9 H1          21.2649     6.4716    42.4161 H            1 ASN264   0.0000
    10 H2          19.6769     6.4045    42.7909 H            1 ASN264   0.0000
    11 HA          21.6572     4.6644    43.8600 H            1 ASN264   0.0000
    12 HB1         18.8620     4.8637    44.3517 H            1 ASN264   0.0000
    13 HB2         20.0745     4.7406    45.4385 H            1 ASN264   0.0000
    14 HD21        19.9877     1.2960    45.7557 H            1 ASN264   0.0000
    15 HD22        20.7024     2.7855    46.2758 H            1 ASN264   0.0000
    16 N           21.3750     2.7450    42.3080 N.am         2 GLU265   0.0000
    17 CA          21.5020     1.7980    41.1960 C.3          2 GLU265   0.0000
    18 C           20.4330     0.6850    41.1650 C.2          2 GLU265   0.0000
    19 O           20.5380    -0.2590    40.3660 O.2          2 GLU265   0.0000
    20 CB          22.9160     1.1900    41.1750 C.3          2 GLU265   0.0000
    21 CG          23.2110     0.2060    42.3130 C.3          2 GLU265   0.0000
    22 CD          23.7950     0.8670    43.5580 C.2          2 GLU265   0.0000
    23 OE1         23.2560     1.9010    44.0260 O.co2        2 GLU265   0.0000
    24 OE2         24.7980     0.3300    44.0830 O.co2        2 GLU265  -1.0000
    25 H8          21.8600     2.5436    43.1590 H            2 GLU265   0.0000
    26 H9          21.3988     2.3244    40.3520 H            2 GLU265   0.0000
    27 H10         23.5770     1.9382    41.2318 H            2 GLU265   0.0000
    28 H11         23.0336     0.7065    40.3076 H            2 GLU265   0.0000
    29 HG1         23.8641    -0.4745    41.9808 H            2 GLU265   0.0000
    30 HG2         22.3571    -0.2479    42.5674 H            2 GLU265   0.0000
    31 N           19.4180     0.7820    42.0250 N.am         3 ASN266   0.0000
    32 CA          18.2830    -0.1540    41.9620 C.3          3 ASN266   0.0000
    33 C           17.3090     0.2380    40.8550 C.2          3 ASN266   0.0000
    34 O           16.1520     0.5940    41.0980 O.2          3 ASN266   0.0000
    35 CB          17.5580    -0.2970    43.2980 C.3          3 ASN266   0.0000
    36 CG          16.7180    -1.5590    43.3670 C.2          3 ASN266   0.0000
    37 OD1         17.0550    -2.5810    42.7540 O.2          3 ASN266   0.0000
    38 ND2         15.6250    -1.5010    44.1150 N.am         3 ASN266   0.0000
    39 H14         19.4280     1.4996    42.7214 H            3 ASN266   0.0000
    40 H15         18.6526    -1.0531    41.7273 H            3 ASN266   0.0000
    41 H16         16.9601     0.4943    43.4254 H            3 ASN266   0.0000
    42 H17         18.2375    -0.3228    44.0312 H            3 ASN266   0.0000
    43 H18         15.0327    -2.3025    44.1979 H            3 ASN266   0.0000
    44 H19         15.3928    -0.6558    44.5964 H            3 ASN266   0.0000
    45 N           17.8050     0.1290    39.6300 N.am         4 ILE267   0.0000
    46 CA          17.1240     0.5830    38.4290 C.3          4 ILE267   0.0000
    47 C           16.5150    -0.6430    37.7350 C.2          4 ILE267   0.0000
    48 O           15.4130    -0.6210    37.1860 O.co2        4 ILE267   0.0000
    49 CB          18.1510     1.3610    37.5510 C.3          4 ILE267   0.0000
    50 CG1         18.3860     2.7610    38.1610 C.3          4 ILE267   0.0000
    51 CG2         17.7170     1.4540    36.0900 C.3          4 ILE267   0.0000
    52 CD1         19.5790     3.5320    37.5530 C.3          4 ILE267   0.0000
    53 OXT         17.1180    -1.7090    37.7530 O.co2        4 ILE267  -1.0000
    54 H20         18.7057    -0.2928    39.5259 H            4 ILE267   0.0000
    55 H21         16.3865     1.2053    38.6914 H            4 ILE267   0.0000
    56 HB          19.0183     0.8642    37.5817 H            4 ILE267   0.0000
    57 HG11        18.5519     2.6510    39.1410 H            4 ILE267   0.0000
    58 HG12        17.5587     3.3053    38.0220 H            4 ILE267   0.0000
    59 HG21        18.4050     1.9596    35.5694 H            4 ILE267   0.0000
    60 HG22        17.6224     0.5334    35.7111 H            4 ILE267   0.0000
    61 HG23        16.8394     1.9299    36.0326 H            4 ILE267   0.0000
    62 HD11        19.6626     4.4228    37.9996 H            4 ILE267   0.0000
    63 HD12        20.4198     3.0090    37.6925 H            4 ILE267   0.0000
    64 HD13        19.4267     3.6632    36.5734 H            4 ILE267   0.0000
    65 H31         20.7719     6.7854    43.9410 H            4 ILE267   0.0000
@<TRIPOS>BOND
     1    1    2       1
     2    2    5       1
     3    2    3       1
     4    5    6       1
     5    6    7       2
     6    6    8      am
     7    3    4       2
     8    1    9       1
     9    1   10       1
    10    2   11       1
    11    3   16      am
    12    5   12       1
    13    5   13       1
    14    8   14       1
    15    8   15       1
    16   16   17       1
    17   17   20       1
    18   17   18       1
    19   20   21       1
    20   21   22       1
    21   22   23      ar
    22   22   24      ar
    23   18   19       2
    24   21   30       1
    25   16   25       1
    26   17   26       1
    27   18   31      am
    28   20   27       1
    29   20   28       1
    30   21   29       1
    31   31   32       1
    32   32   35       1
    33   32   33       1
    34   35   36       1
    35   36   37       2
    36   36   38      am
    37   33   34       2
    38   38   44       1
    39   31   39       1
    40   32   40       1
    41   33   45      am
    42   35   41       1
    43   35   42       1
    44   38   43       1
    45   45   46       1
    46   46   49       1
    47   46   47       1
    48   49   51       1
    49   49   50       1
    50   50   52       1
    51   47   48      ar
    52   47   53      ar
    53   52   64       1
    54   45   54       1
    55   46   55       1
    56   49   56       1
    57   50   57       1
    58   50   58       1
    59   51   59       1
    60   51   60       1
    61   51   61       1
    62   52   62       1
    63   52   63       1
    64    1   65       1
@<TRIPOS>SUBSTRUCTURE
     1 ASN264      1 RESIDUE           4 P     ASN     0 **** ASN P 264
     2 GLU265     16 RESIDUE           4 P     GLU     0 **** GLU P 265
     3 ASN266     31 RESIDUE           4 P     ASN     0 **** ASN P 266
     4 ILE267     45 RESIDUE           4 P     ILE     0 **** ILE P 267
