3iqi_ASN_GLU_ASN_ILE_1_ligand
  -OEChem-08111718373D

 65 64  0     1  0  0  0  0  0999 V2000
   19.6626    4.4228   37.9996 H   0  0  0  0  0  0  0  0  0  0  0  0
   20.4198    3.0090   37.6925 H   0  0  0  0  0  0  0  0  0  0  0  0
   19.4267    3.6632   36.5734 H   0  0  0  0  0  0  0  0  0  0  0  0
   18.4050    1.9596   35.5694 H   0  0  0  0  0  0  0  0  0  0  0  0
   17.6224    0.5334   35.7111 H   0  0  0  0  0  0  0  0  0  0  0  0
   16.8394    1.9299   36.0326 H   0  0  0  0  0  0  0  0  0  0  0  0
   16.9601    0.4943   43.4254 H   0  0  0  0  0  0  0  0  0  0  0  0
   18.2375   -0.3228   44.0312 H   0  0  0  0  0  0  0  0  0  0  0  0
   18.8620    4.8637   44.3517 H   0  0  0  0  0  0  0  0  0  0  0  0
   20.0745    4.7406   45.4385 H   0  0  0  0  0  0  0  0  0  0  0  0
   23.8641   -0.4745   41.9808 H   0  0  0  0  0  0  0  0  0  0  0  0
   22.3571   -0.2479   42.5674 H   0  0  0  0  0  0  0  0  0  0  0  0
   18.5519    2.6510   39.1410 H   0  0  0  0  0  0  0  0  0  0  0  0
   17.5587    3.3053   38.0220 H   0  0  0  0  0  0  0  0  0  0  0  0
   23.5770    1.9382   41.2318 H   0  0  0  0  0  0  0  0  0  0  0  0
   23.0336    0.7065   40.3076 H   0  0  0  0  0  0  0  0  0  0  0  0
   21.3988    2.3244   40.3520 H   0  0  0  0  0  0  0  0  0  0  0  0
   18.6526   -1.0531   41.7273 H   0  0  0  0  0  0  0  0  0  0  0  0
   21.6572    4.6644   43.8600 H   0  0  0  0  0  0  0  0  0  0  0  0
   16.3865    1.2053   38.6914 H   0  0  0  0  0  0  0  0  0  0  0  0
   19.0183    0.8642   37.5817 H   0  0  0  0  0  0  0  0  0  0  0  0
   15.0327   -2.3025   44.1979 H   0  0  0  0  0  0  0  0  0  0  0  0
   15.3928   -0.6558   44.5964 H   0  0  0  0  0  0  0  0  0  0  0  0
   19.9877    1.2960   45.7557 H   0  0  0  0  0  0  0  0  0  0  0  0
   20.7024    2.7855   46.2758 H   0  0  0  0  0  0  0  0  0  0  0  0
   19.4280    1.4996   42.7214 H   0  0  0  0  0  0  0  0  0  0  0  0
   21.8600    2.5436   43.1590 H   0  0  0  0  0  0  0  0  0  0  0  0
   18.7057   -0.2928   39.5259 H   0  0  0  0  0  0  0  0  0  0  0  0
   19.6769    6.4045   42.7909 H   0  0  0  0  0  0  0  0  0  0  0  0
   21.2649    6.4716   42.4161 H   0  0  0  0  0  0  0  0  0  0  0  0
   16.7180   -1.5590   43.3670 C   0  0  0  0  0  0  0  0  0  0  0  0
   19.4910    2.9250   44.6570 C   0  0  0  0  0  0  0  0  0  0  0  0
   20.4330    0.6850   41.1650 C   0  0  0  0  0  0  0  0  0  0  0  0
   17.3090    0.2380   40.8550 C   0  0  0  0  0  0  0  0  0  0  0  0
   20.6470    3.8610   42.2450 C   0  0  0  0  0  0  0  0  0  0  0  0
   23.7950    0.8670   43.5580 C   0  0  0  0  0  0  0  0  0  0  0  0
   16.5150   -0.6430   37.7350 C   0  0  0  0  0  0  0  0  0  0  0  0
   19.5790    3.5320   37.5530 C   0  0  0  0  0  0  0  0  0  0  0  0
   17.7170    1.4540   36.0900 C   0  0  0  0  0  0  0  0  0  0  0  0
   17.5580   -0.2970   43.2980 C   0  0  1  0  0  0  0  0  0  0  0  0
   19.7310    4.4140   44.5580 C   0  0  1  0  0  0  0  0  0  0  0  0
   23.2110    0.2060   42.3130 C   0  0  1  0  0  0  0  0  0  0  0  0
   18.3860    2.7610   38.1610 C   0  0  1  0  0  0  0  0  0  0  0  0
   22.9160    1.1900   41.1750 C   0  0  1  0  0  0  0  0  0  0  0  0
   21.5020    1.7980   41.1960 C   0  0  2  0  0  0  0  0  0  0  0  0
   18.2830   -0.1540   41.9620 C   0  0  2  0  0  0  0  0  0  0  0  0
   20.7450    4.7870   43.4690 C   0  0  2  0  0  0  0  0  0  0  0  0
   17.1240    0.5830   38.4290 C   0  0  2  0  0  0  0  0  0  0  0  0
   18.1510    1.3610   37.5510 C   0  0  1  0  0  0  0  0  0  0  0  0
   15.6250   -1.5010   44.1150 N   0  0  0  0  0  0  0  0  0  0  0  0
   20.1120    2.2820   45.6450 N   0  0  0  0  0  0  0  0  0  0  0  0
   19.4180    0.7820   42.0250 N   0  0  0  0  0  0  0  0  0  0  0  0
   21.3750    2.7450   42.3080 N   0  0  0  0  0  0  0  0  0  0  0  0
   17.8050    0.1290   39.6300 N   0  0  0  0  0  0  0  0  0  0  0  0
   20.6030    6.2310   43.1260 N   0  3  0  0  0  0  0  0  0  0  0  0
   24.7980    0.3300   44.0830 O   0  5  0  0  0  0  0  0  0  0  0  0
   17.1180   -1.7090   37.7530 O   0  5  0  0  0  0  0  0  0  0  0  0
   17.0550   -2.5810   42.7540 O   0  0  0  0  0  0  0  0  0  0  0  0
   18.7370    2.3640   43.8720 O   0  0  0  0  0  0  0  0  0  0  0  0
   20.5380   -0.2590   40.3660 O   0  0  0  0  0  0  0  0  0  0  0  0
   16.1520    0.5940   41.0980 O   0  0  0  0  0  0  0  0  0  0  0  0
   19.9280    4.1560   41.2800 O   0  0  0  0  0  0  0  0  0  0  0  0
   23.2560    1.9010   44.0260 O   0  0  0  0  0  0  0  0  0  0  0  0
   15.4130   -0.6210   37.1860 O   0  0  0  0  0  0  0  0  0  0  0  0
   20.7719    6.7854   43.9410 H   0  0  0  0  0  0  0  0  0  0  0  0
  1 38  1  0  0  0  0
  2 38  1  0  0  0  0
  3 38  1  0  0  0  0
  4 39  1  0  0  0  0
  5 39  1  0  0  0  0
  6 39  1  0  0  0  0
  7 40  1  0  0  0  0
  8 40  1  0  0  0  0
  9 41  1  0  0  0  0
 10 41  1  0  0  0  0
 11 42  1  0  0  0  0
 12 42  1  0  0  0  0
 13 43  1  0  0  0  0
 14 43  1  0  0  0  0
 15 44  1  0  0  0  0
 16 44  1  0  0  0  0
 17 45  1  0  0  0  0
 18 46  1  0  0  0  0
 19 47  1  0  0  0  0
 20 48  1  0  0  0  0
 21 49  1  0  0  0  0
 22 50  1  0  0  0  0
 23 50  1  0  0  0  0
 24 51  1  0  0  0  0
 25 51  1  0  0  0  0
 26 52  1  0  0  0  0
 27 53  1  0  0  0  0
 28 54  1  0  0  0  0
 29 55  1  0  0  0  0
 30 55  1  0  0  0  0
 31 40  1  0  0  0  0
 31 50  1  0  0  0  0
 31 58  2  0  0  0  0
 32 41  1  0  0  0  0
 32 51  1  0  0  0  0
 32 59  2  0  0  0  0
 33 45  1  0  0  0  0
 33 52  1  0  0  0  0
 33 60  2  0  0  0  0
 34 46  1  0  0  0  0
 34 54  1  0  0  0  0
 34 61  2  0  0  0  0
 35 47  1  0  0  0  0
 35 53  1  0  0  0  0
 35 62  2  0  0  0  0
 36 42  1  0  0  0  0
 36 56  1  0  0  0  0
 36 63  2  0  0  0  0
 37 48  1  0  0  0  0
 37 57  1  0  0  0  0
 37 64  2  0  0  0  0
 38 43  1  0  0  0  0
 39 49  1  0  0  0  0
 40 46  1  0  0  0  0
 41 47  1  0  0  0  0
 42 44  1  0  0  0  0
 43 49  1  0  0  0  0
 44 45  1  0  0  0  0
 45 53  1  0  0  0  0
 46 52  1  0  0  0  0
 47 55  1  0  0  0  0
 48 49  1  0  0  0  0
 48 54  1  0  0  0  0
 55 65  1  0  0  0  0
M  CHG  3  55   1  56  -1  57  -1
M  END
> <scpdb_id>
3iqi_1

$$$$
