#    Name: 11583
#    Modification time : Tue Aug  8 20:21:25 2017

@<TRIPOS>MOLECULE
11583
   33     0     9     0     0
SMALL
NO_CHARGES


@<TRIPOS>ATOM
      1 N          19.1400   54.1620   31.9630 N.am      1 SEL1        0.0000 
      2 O          14.5510   53.8940   32.3870 O.2       2 ALL2        0.0000 
      3 O          17.2220   52.7100   36.1010 O.2       2 ALL2        0.0000 
      4 O          21.4780   53.5480   36.6640 O.2       2 ALL2        0.0000 
      5 O          20.9210   49.9940   36.9720 O.2       2 ALL2        0.0000 
      6 CA         19.6400   52.2330   35.7540 C.3       3 GLL5        0.0000 
      7 CA         18.5430   52.5420   36.7520 C.3       3 GLL5        0.0000 
      8 CA         22.7320   51.2790   37.9140 C.3       3 GLL5        0.0000 
      9 CA         21.0900   52.2500   36.2580 C.3       3 GLL5        0.0000 
     10 N          18.4680   57.1190   33.1840 N.am      4 SEP1        0.0000 
     11 O          12.4660   52.4510   33.8730 O.2       5 ALP2        0.0000 
     12 O          14.6460   51.7150   37.1300 O.2       5 ALP2        0.0000 
     13 O          21.1520   54.3520   39.2530 O.2       5 ALP2        0.0000 
     14 O          21.8390   47.8840   38.2610 O.2       5 ALP2        0.0000 
     15 CA         22.3930   50.8250   32.7410 C.3       6 GLP5        0.0000 
     16 CA         19.1340   56.5480   36.6710 C.3       6 GLP5        0.0000 
     17 CA         18.0770   53.1210   40.2120 C.3       6 GLP5        0.0000 
     18 CA         17.7950   56.2400   36.6650 C.3       6 GLP5        0.0000 
     19 CA         25.6030   48.8990   38.3160 C.3       6 GLP5        0.0000 
     20 CA         16.8800   49.8690   38.0950 C.3       6 GLP5        0.0000 
     21 CA         23.2440   49.7940   33.9600 C.3       6 GLP5        0.0000 
     22 N          18.8040   55.6405   32.5735 N.am      7 SEC1        0.0000 
     23 O          13.5085   53.1725   33.1300 O.2       8 ALC2        0.0000 
     24 O          15.9340   52.2125   36.6155 O.2       8 ALC2        0.0000 
     25 O          21.3150   53.9500   37.9585 O.2       8 ALC2        0.0000 
     26 O          21.3800   48.9390   37.6165 O.2       8 ALC2        0.0000 
     27 CA         21.0165   51.5290   34.2475 C.3       9 GLC5        0.0000 
     28 CA         19.3870   54.3905   36.2125 C.3       9 GLC5        0.0000 
     29 CA         18.3100   52.8315   38.4820 C.3       9 GLC5        0.0000 
     30 CA         18.1690   54.3910   36.7085 C.3       9 GLC5        0.0000 
     31 CA         24.1675   50.0890   38.1150 C.3       9 GLC5        0.0000 
     32 CA         17.9857   51.1283   37.1740 C.3       9 GLC5        0.0000 
     33 CA         22.6071   50.6575   35.6707 C.3       9 GLC5        0.0000 
@<TRIPOS>BOND
@<TRIPOS>SUBSTRUCTURE
     1 SEL1        1 GROUP        1 Z    SEL  0     ROOT SEL Z 0
     2 ALL2        2 GROUP        1 Z    ALL  0     **** ALL Z 1
     3 GLL5        6 GROUP        1 Z    GLL  0     **** GLL Z 4
     4 SEP1       10 GROUP        1 Z    SEP  0     **** SEP Z 7
     5 ALP2       11 GROUP        1 Z    ALP  0     **** ALP Z 8
     6 GLP5       15 GROUP        1 Z    GLP  0     **** GLP Z 11
     7 SEC1       22 GROUP        1 Z    SEC  0     **** SEC Z 14
     8 ALC2       23 GROUP        1 Z    ALC  0     **** ALC Z 15
     9 GLC5       27 GROUP        1 Z    GLC  0     **** GLC Z 18
@<TRIPOS>SET

