@<TRIPOS>MOLECULE
1zvl_H4B_1_ligand
   32    33     1     0     0
SMALL
NO_CHARGES


@<TRIPOS>ATOM
     1 N1          15.8860    53.2990    34.2260 N.2          1 H4B900   0.0000
     2 C2          15.7330    53.7350    32.9400 C.2          1 H4B900   0.0000
     3 N2          14.5510    53.8940    32.3870 N.pl3        1 H4B900   0.0000
     4 N3          16.8640    54.0070    32.2300 N.pl3        1 H4B900   0.0000
     5 C4          18.2000    53.8800    32.7100 C.2          1 H4B900   0.0000
     6 O4          19.1400    54.1620    31.9630 O.2          1 H4B900   0.0000
     7 C4A         18.2790    53.4210    34.0540 C.2          1 H4B900   0.0000
     8 C8A         17.1430    53.1350    34.8200 C.2          1 H4B900   0.0000
     9 N5          19.6110    53.2650    34.6430 N.pl3        1 H4B900   0.0000
    10 N8          17.2220    52.7100    36.1010 N.pl3        1 H4B900   0.0000
    11 C6          19.6400    52.2330    35.7540 C.3          1 H4B900   0.0000
    12 C7          18.5430    52.5420    36.7520 C.3          1 H4B900   0.0000
    13 C9          21.0900    52.2500    36.2580 C.3          1 H4B900   0.0000
    14 O9          21.4780    53.5480    36.6640 O.3          1 H4B900   0.0000
    15 C10         21.3270    51.2760    37.4400 C.3          1 H4B900   0.0000
    16 C11         22.7320    51.2790    37.9140 C.3          1 H4B900   0.0000
    17 O10         20.9210    49.9940    36.9720 O.3          1 H4B900   0.0000
    18 H1          14.4799    54.2152    31.4427 H            1 H4B900   0.0000
    19 H2          13.7230    53.6937    32.9107 H            1 H4B900   0.0000
    20 H3          20.4133    53.7823    34.3452 H            1 H4B900   0.0000
    21 H4          16.3860    52.5082    36.6113 H            1 H4B900   0.0000
    22 H5          19.4569    51.3351    35.3537 H            1 H4B900   0.0000
    23 H6          18.4846    51.7903    37.4089 H            1 H4B900   0.0000
    24 H7          18.7745    53.3877    37.2329 H            1 H4B900   0.0000
    25 H8          21.6836    51.9712    35.5031 H            1 H4B900   0.0000
    26 H9          21.2677    53.6707    37.6339 H            1 H4B900   0.0000
    27 H10         20.7327    51.5428    38.1987 H            1 H4B900   0.0000
    28 H11         22.8288    50.6362    38.6739 H            1 H4B900   0.0000
    29 H12         23.3367    51.0047    37.1662 H            1 H4B900   0.0000
    30 H13         22.9781    52.1982    38.2216 H            1 H4B900   0.0000
    31 H14         21.4589    49.2862    37.4300 H            1 H4B900   0.0000
    32 H15         16.7461    54.3238    31.2889 H            1 H4B900   0.0000
@<TRIPOS>BOND
     1    1    2       2
     2    1    8       1
     3    2    3       1
     4    2    4       1
     5    4    5       1
     6    5    6       2
     7    5    7       1
     8    7    8       2
     9    7    9       1
    10    8   10       1
    11    9   11       1
    12   10   12       1
    13   11   12       1
    14   11   13       1
    15   13   14       1
    16   13   15       1
    17   15   16       1
    18   15   17       1
    19   17   31       1
    20    3   18       1
    21    3   19       1
    22    9   20       1
    23   10   21       1
    24   11   22       1
    25   12   23       1
    26   12   24       1
    27   13   25       1
    28   14   26       1
    29   15   27       1
    30   16   28       1
    31   16   29       1
    32   16   30       1
    33    4   32       1
@<TRIPOS>SUBSTRUCTURE
     1 H4B900      1 GROUP             4 A     H4B     0 **** H4B A 900
