1zvl_H4B_1_ligand
  -OEChem-08111718373D

 32 33  0     1  0  0  0  0  0999 V2000
   18.4846   51.7903   37.4089 H   0  0  0  0  0  0  0  0  0  0  0  0
   18.7745   53.3877   37.2329 H   0  0  0  0  0  0  0  0  0  0  0  0
   19.4569   51.3351   35.3537 H   0  0  0  0  0  0  0  0  0  0  0  0
   22.8288   50.6362   38.6739 H   0  0  0  0  0  0  0  0  0  0  0  0
   23.3367   51.0047   37.1662 H   0  0  0  0  0  0  0  0  0  0  0  0
   22.9781   52.1982   38.2216 H   0  0  0  0  0  0  0  0  0  0  0  0
   21.6836   51.9712   35.5031 H   0  0  0  0  0  0  0  0  0  0  0  0
   20.7327   51.5428   38.1987 H   0  0  0  0  0  0  0  0  0  0  0  0
   16.7461   54.3238   31.2889 H   0  0  0  0  0  0  0  0  0  0  0  0
   20.4133   53.7823   34.3452 H   0  0  0  0  0  0  0  0  0  0  0  0
   16.3860   52.5082   36.6113 H   0  0  0  0  0  0  0  0  0  0  0  0
   14.4799   54.2152   31.4427 H   0  0  0  0  0  0  0  0  0  0  0  0
   13.7230   53.6937   32.9107 H   0  0  0  0  0  0  0  0  0  0  0  0
   21.2677   53.6707   37.6339 H   0  0  0  0  0  0  0  0  0  0  0  0
   21.4589   49.2862   37.4300 H   0  0  0  0  0  0  0  0  0  0  0  0
   18.2790   53.4210   34.0540 C   0  0  0  0  0  0  0  0  0  0  0  0
   17.1430   53.1350   34.8200 C   0  0  0  0  0  0  0  0  0  0  0  0
   18.2000   53.8800   32.7100 C   0  0  0  0  0  0  0  0  0  0  0  0
   15.7330   53.7350   32.9400 C   0  0  0  0  0  0  0  0  0  0  0  0
   18.5430   52.5420   36.7520 C   0  0  1  0  0  0  0  0  0  0  0  0
   19.6400   52.2330   35.7540 C   0  0  2  0  0  0  0  0  0  0  0  0
   22.7320   51.2790   37.9140 C   0  0  0  0  0  0  0  0  0  0  0  0
   21.0900   52.2500   36.2580 C   0  0  2  0  0  0  0  0  0  0  0  0
   21.3270   51.2760   37.4400 C   0  0  1  0  0  0  0  0  0  0  0  0
   15.8860   53.2990   34.2260 N   0  0  0  0  0  0  0  0  0  0  0  0
   16.8640   54.0070   32.2300 N   0  0  0  0  0  0  0  0  0  0  0  0
   19.6110   53.2650   34.6430 N   0  0  0  0  0  0  0  0  0  0  0  0
   17.2220   52.7100   36.1010 N   0  0  0  0  0  0  0  0  0  0  0  0
   14.5510   53.8940   32.3870 N   0  0  0  0  0  0  0  0  0  0  0  0
   19.1400   54.1620   31.9630 O   0  0  0  0  0  0  0  0  0  0  0  0
   21.4780   53.5480   36.6640 O   0  0  0  0  0  0  0  0  0  0  0  0
   20.9210   49.9940   36.9720 O   0  0  0  0  0  0  0  0  0  0  0  0
  1 20  1  0  0  0  0
  2 20  1  0  0  0  0
  3 21  1  0  0  0  0
  4 22  1  0  0  0  0
  5 22  1  0  0  0  0
  6 22  1  0  0  0  0
  7 23  1  0  0  0  0
  8 24  1  0  0  0  0
  9 26  1  0  0  0  0
 10 27  1  0  0  0  0
 11 28  1  0  0  0  0
 12 29  1  0  0  0  0
 13 29  1  0  0  0  0
 14 31  1  0  0  0  0
 15 32  1  0  0  0  0
 16 17  2  0  0  0  0
 16 18  1  0  0  0  0
 16 27  1  0  0  0  0
 17 25  1  0  0  0  0
 17 28  1  0  0  0  0
 18 26  1  0  0  0  0
 18 30  2  0  0  0  0
 19 25  2  0  0  0  0
 19 26  1  0  0  0  0
 19 29  1  0  0  0  0
 20 21  1  0  0  0  0
 20 28  1  0  0  0  0
 21 23  1  0  0  0  0
 21 27  1  0  0  0  0
 22 24  1  0  0  0  0
 23 24  1  0  0  0  0
 23 31  1  0  0  0  0
 24 32  1  0  0  0  0
M  END
> <scpdb_id>
1zvl_1

$$$$
