#    Name: 19437
#    Modification time : Tue Aug  8 22:49:40 2017

@<TRIPOS>MOLECULE
19437
   71     0    12     0     0
SMALL
NO_CHARGES


@<TRIPOS>ATOM
      1 N          33.6250   -7.3380   64.1010 N.am      1 SEL1        0.0000 
      2 N          36.3940   -3.8460   64.2970 N.am      1 SEL1        0.0000 
      3 N          34.1120  -10.6400   65.1820 N.am      1 SEL1        0.0000 
      4 N          36.4320  -11.8730   66.0180 N.am      1 SEL1        0.0000 
      5 N          40.3070   -8.6860   68.6940 N.am      1 SEL1        0.0000 
      6 N          39.1030   -9.2490   70.8580 N.am      1 SEL1        0.0000 
      7 N          40.1260   -9.7370   73.1390 N.am      1 SEL1        0.0000 
      8 N          35.0680  -13.3760   71.5040 N.am      1 SEL1        0.0000 
      9 N          36.2920  -10.7340   74.4550 N.am      1 SEL1        0.0000 
     10 O          35.0010   -5.5990   64.1850 O.2       2 ALL2        0.0000 
     11 O          34.1120  -10.6400   65.1820 O.2       2 ALL2        0.0000 
     12 O          36.4320  -11.8730   66.0180 O.2       2 ALL2        0.0000 
     13 O          35.0680  -13.3760   71.5040 O.2       2 ALL2        0.0000 
     14 O          34.0200  -10.4620   71.6230 O.2       2 ALL2        0.0000 
     15 O          33.2080   -9.1020   74.5500 O.2       2 ALL2        0.0000 
     16 CA         34.7310   -8.6690   66.2710 C.3       3 GLL5        0.0000 
     17 CA         36.2710  -10.4830   66.3080 C.3       3 GLL5        0.0000 
     18 CA         36.7540  -12.5600   73.0630 C.3       3 GLL5        0.0000 
     19 CA         35.0920  -10.3380   73.7710 C.3       3 GLL5        0.0000 
     20 CA         33.9970  -10.2570   74.8210 C.3       3 GLL5        0.0000 
     21 CA         35.2420   -9.8070   65.4200 C.3       3 GLL5        0.0000 
     22 Zn         39.6620  -11.0250   69.0420 Zn        4 ZIL7        0.0000 
     23 Zn         39.7100  -11.6860   71.6380 Zn        4 ZIL7        0.0000 
     24 N          32.5220   -6.4670   61.4460 N.am      5 SEP1        0.0000 
     25 N          36.8218   -1.3459   62.8839 N.am      5 SEP1        0.0000 
     26 N          31.4550  -10.1980   66.8080 N.am      5 SEP1        0.0000 
     27 N          37.3380  -14.3500   64.1480 N.am      5 SEP1        0.0000 
     28 N          41.5630   -6.5060   69.9480 N.am      5 SEP1        0.0000 
     29 N          41.2640   -7.5290   72.8500 N.am      5 SEP1        0.0000 
     30 N          37.7560   -7.6850   74.1240 N.am      5 SEP1        0.0000 
     31 N          32.5980  -13.8400   70.4000 N.am      5 SEP1        0.0000 
     32 O          33.4170   -4.0510   62.3330 O.2       6 ALP2        0.0000 
     33 O          33.7040  -10.9600   62.4790 O.2       6 ALP2        0.0000 
     34 O          34.9340  -13.6220   67.9550 O.2       6 ALP2        0.0000 
     35 O          36.5590  -13.7840   69.4190 O.2       6 ALP2        0.0000 
     36 O          31.3290  -10.9430   72.4380 O.2       6 ALP2        0.0000 
     37 CA         31.1840   -9.0530   67.5940 C.3       7 GLP5        0.0000 
     38 CA         37.9900   -7.9680   63.2190 C.3       7 GLP5        0.0000 
     39 CA         38.6970  -11.9030   62.8460 C.3       7 GLP5        0.0000 
     40 CA         37.4330  -16.1070   75.5140 C.3       7 GLP5        0.0000 
     41 CA         37.1330  -16.5920   71.2370 C.3       7 GLP5        0.0000 
     42 CA         37.1820   -6.8100   75.0080 C.3       7 GLP5        0.0000 
     43 CA         35.6380  -10.2420   78.3910 C.3       7 GLP5        0.0000 
     44 CA         36.9770   -8.4290   62.3890 C.3       7 GLP5        0.0000 
     45 Zn         40.7060  -12.4860   70.1190 Zn        8 ZIP7        0.0000 
     46 N          33.0735   -6.9025   62.7735 N.am      9 SEC1        0.0000 
     47 N          36.6079   -2.5960   63.5904 N.am      9 SEC1        0.0000 
     48 N          32.7835  -10.4190   65.9950 N.am      9 SEC1        0.0000 
     49 N          36.8850  -13.1115   65.0830 N.am      9 SEC1        0.0000 
     50 N          40.9350   -7.5960   69.3210 N.am      9 SEC1        0.0000 
     51 N          40.1835   -8.3890   71.8540 N.am      9 SEC1        0.0000 
     52 N          40.6950   -8.6330   72.9945 N.am      9 SEC1        0.0000 
     53 N          38.9410   -8.7110   73.6315 N.am      9 SEC1        0.0000 
     54 N          33.8330  -13.6080   70.9520 N.am      9 SEC1        0.0000 
     55 N          37.0240   -9.2095   74.2895 N.am      9 SEC1        0.0000 
     56 O          34.2090   -4.8250   63.2590 O.2      10 ALC2        0.0000 
     57 O          33.9080  -10.8000   63.8305 O.2      10 ALC2        0.0000 
     58 O          35.6830  -12.7475   66.9865 O.2      10 ALC2        0.0000 
     59 O          35.8135  -13.5800   70.4615 O.2      10 ALC2        0.0000 
     60 O          32.6745  -10.7025   72.0305 O.2      10 ALC2        0.0000 
     61 O          32.2685  -10.0225   73.4940 O.2      10 ALC2        0.0000 
     62 CA         32.9575   -8.8610   66.9325 C.3      11 GLC5        0.0000 
     63 CA         37.1305   -9.2255   64.7635 C.3      11 GLC5        0.0000 
     64 CA         37.4840  -11.1930   64.5770 C.3      11 GLC5        0.0000 
     65 CA         37.0935  -14.3335   74.2885 C.3      11 GLC5        0.0000 
     66 CA         36.9435  -14.5760   72.1500 C.3      11 GLC5        0.0000 
     67 CA         36.1370   -8.5740   74.3895 C.3      11 GLC5        0.0000 
     68 CA         34.8175  -10.2495   76.6060 C.3      11 GLC5        0.0000 
     69 CA         35.9817   -8.8335   64.1172 C.3      11 GLC5        0.0000 
     70 Zn         40.1840  -11.7555   69.5805 Zn       12 ZIC7        0.0000 
     71 Zn         40.2080  -12.0860   70.8785 Zn       12 ZIC7        0.0000 
@<TRIPOS>BOND
@<TRIPOS>SUBSTRUCTURE
     1 SEL1        1 GROUP        1 Z    SEL  0     ROOT SEL Z 0
     2 ALL2       10 GROUP        1 Z    ALL  0     **** ALL Z 1
     3 GLL5       16 GROUP        1 Z    GLL  0     **** GLL Z 4
     4 ZIL7       22 GROUP        1 Z    ZIL  0     **** ZIL Z 5
     5 SEP1       24 GROUP        1 Z    SEP  0     **** SEP Z 7
     6 ALP2       32 GROUP        1 Z    ALP  0     **** ALP Z 8
     7 GLP5       37 GROUP        1 Z    GLP  0     **** GLP Z 11
     8 ZIP7       45 GROUP        1 Z    ZIP  0     **** ZIP Z 12
     9 SEC1       46 GROUP        1 Z    SEC  0     **** SEC Z 14
    10 ALC2       56 GROUP        1 Z    ALC  0     **** ALC Z 15
    11 GLC5       62 GROUP        1 Z    GLC  0     **** GLC Z 18
    12 ZIC7       70 GROUP        1 Z    ZIC  0     **** ZIC Z 19
@<TRIPOS>SET

