@<TRIPOS>MOLECULE
2vkd_UPG_2_ligand
   58    60     1     0     0
SMALL
NO_CHARGES


@<TRIPOS>ATOM
     1 N1          35.2170    -7.3770    65.7580 N.pl3        1 UPG1544   0.0000
     2 C2          34.5820    -6.7760    64.6550 C.2          1 UPG1544   0.0000
     3 N3          35.0010    -5.5990    64.1850 N.pl3        1 UPG1544   0.0000
     4 C4          36.0290    -4.9540    64.7540 C.2          1 UPG1544   0.0000
     5 C5          36.6850    -5.5100    65.8550 C.2          1 UPG1544   0.0000
     6 C6          36.2460    -6.7410    66.3410 C.2          1 UPG1544   0.0000
     7 O2          33.6250    -7.3380    64.1010 O.2          1 UPG1544   0.0000
     8 O4          36.3940    -3.8460    64.2970 O.2          1 UPG1544   0.0000
     9 C1C         34.7310    -8.6690    66.2710 C.3          1 UPG1544   0.0000
    10 C2C         35.2420    -9.8070    65.4200 C.3          1 UPG1544   0.0000
    11 O2C         34.1120   -10.6400    65.1820 O.3          1 UPG1544   0.0000
    12 C3C         36.2710   -10.4830    66.3080 C.3          1 UPG1544   0.0000
    13 C4C         35.7330   -10.2300    67.7150 C.3          1 UPG1544   0.0000
    14 O4C         35.1460    -8.9250    67.6270 O.3          1 UPG1544   0.0000
    15 O3C         36.4320   -11.8730    66.0180 O.3          1 UPG1544   0.0000
    16 C5C         36.7790   -10.3240    68.8260 C.3          1 UPG1544   0.0000
    17 O5C         37.7840    -9.3080    68.7230 O.3          1 UPG1544   0.0000
    18 PA          39.2630    -9.5960    69.2940 P.3          1 UPG1544   0.0000
    19 O1A         39.6620   -11.0250    69.0420 O.co2        1 UPG1544   0.0000
    20 O2A         40.3070    -8.6860    68.6940 O.co2        1 UPG1544  -1.0000
    21 O3A         39.1030    -9.2490    70.8580 O.3          1 UPG1544   0.0000
    22 PB          39.2270   -10.3150    72.0700 P.3          1 UPG1544   0.0000
    23 O1B         39.7100   -11.6860    71.6380 O.co2        1 UPG1544   0.0000
    24 O2B         40.1260    -9.7370    73.1390 O.co2        1 UPG1544  -1.0000
    25 O3B         37.7140   -10.3680    72.6260 O.3          1 UPG1544   0.0000
    26 C1'         37.3330   -11.2860    73.6560 C.3          1 UPG1544   0.0000
    27 C2'         36.7540   -12.5600    73.0630 C.3          1 UPG1544   0.0000
    28 C3'         35.6840   -12.1890    72.0350 C.3          1 UPG1544   0.0000
    29 C4'         34.6160   -11.2710    72.6460 C.3          1 UPG1544   0.0000
    30 C5'         35.0920   -10.3380    73.7710 C.3          1 UPG1544   0.0000
    31 C6'         33.9970   -10.2570    74.8210 C.3          1 UPG1544   0.0000
    32 O2'         37.8070   -13.3570    72.5040 O.3          1 UPG1544   0.0000
    33 O3'         35.0680   -13.3760    71.5040 O.3          1 UPG1544   0.0000
    34 O4'         34.0200   -10.4620    71.6230 O.3          1 UPG1544   0.0000
    35 O5'         36.2920   -10.7340    74.4550 O.3          1 UPG1544   0.0000
    36 O6'         33.2080    -9.1020    74.5500 O.3          1 UPG1544   0.0000
    37 H1          34.5407    -5.1921    63.3960 H            1 UPG1544   0.0000
    38 H2          37.4529    -5.0354    66.2853 H            1 UPG1544   0.0000
    39 H3          36.7011    -7.1536    67.1301 H            1 UPG1544   0.0000
    40 H1C         33.7316    -8.6697    66.2378 H            1 UPG1544   0.0000
    41 H2C         35.6471    -9.4789    64.5666 H            1 UPG1544   0.0000
    42 H6          33.9438   -10.7005    64.1981 H            1 UPG1544   0.0000
    43 H3C         37.1514   -10.0203    66.2036 H            1 UPG1544   0.0000
    44 H4C         35.0084   -10.8931    67.9029 H            1 UPG1544   0.0000
    45 H9          35.5601   -12.3443    66.1505 H            1 UPG1544   0.0000
    46 H5C1        37.2218   -11.2191    68.7742 H            1 UPG1544   0.0000
    47 H5C2        36.3182   -10.2306    69.7086 H            1 UPG1544   0.0000
    48 H1'         38.1234   -11.5043    74.2283 H            1 UPG1544   0.0000
    49 H2'         36.3192   -13.0811    73.7974 H            1 UPG1544   0.0000
    50 H3'         36.1261   -11.7004    71.2828 H            1 UPG1544   0.0000
    51 H4'         33.8978   -11.8553    73.0238 H            1 UPG1544   0.0000
    52 H5'         35.2320    -9.4250    73.3878 H            1 UPG1544   0.0000
    53 H6'1        34.4049   -10.1829    75.7310 H            1 UPG1544   0.0000
    54 H6'2        33.4249   -11.0760    74.7779 H            1 UPG1544   0.0000
    55 H19         38.5427   -12.7602    72.1838 H            1 UPG1544   0.0000
    56 H20         35.5728   -13.6807    70.6963 H            1 UPG1544   0.0000
    57 H21         33.0379   -10.6460    71.5824 H            1 UPG1544   0.0000
    58 H6'         32.2613    -9.3769    74.3821 H            1 UPG1544   0.0000
@<TRIPOS>BOND
     1    1    2       1
     2    1    6       1
     3    1    9       1
     4    2    3       1
     5    2    7       2
     6    3    4       1
     7    4    5       1
     8    4    8       2
     9    5    6       2
    10    9   10       1
    11    9   14       1
    12   10   11       1
    13   10   12       1
    14   12   13       1
    15   12   15       1
    16   13   14       1
    17   13   16       1
    18   16   17       1
    19   17   18       1
    20   18   19      ar
    21   18   20      ar
    22   18   21       1
    23   21   22       1
    24   22   23      ar
    25   22   24      ar
    26   22   25       1
    27   25   26       1
    28   26   27       1
    29   26   35       1
    30   27   28       1
    31   27   32       1
    32   28   29       1
    33   28   33       1
    34   29   30       1
    35   29   34       1
    36   30   31       1
    37   30   35       1
    38   31   36       1
    39    3   37       1
    40    5   38       1
    41    6   39       1
    42    9   40       1
    43   10   41       1
    44   11   42       1
    45   12   43       1
    46   13   44       1
    47   15   45       1
    48   16   46       1
    49   16   47       1
    50   36   58       1
    51   34   57       1
    52   26   48       1
    53   27   49       1
    54   28   50       1
    55   29   51       1
    56   30   52       1
    57   31   53       1
    58   31   54       1
    59   32   55       1
    60   33   56       1
@<TRIPOS>SUBSTRUCTURE
     1 UPG1544     1 GROUP             4 B     UPG     0 **** UPG B1544
