2vkd_UPG_2_ligand
  -OEChem-08111718373D

 58 60  0     1  0  0  0  0  0999 V2000
   37.4529   -5.0354   66.2853 H   0  0  0  0  0  0  0  0  0  0  0  0
   36.7011   -7.1536   67.1301 H   0  0  0  0  0  0  0  0  0  0  0  0
   36.1261  -11.7004   71.2828 H   0  0  0  0  0  0  0  0  0  0  0  0
   33.8978  -11.8553   73.0238 H   0  0  0  0  0  0  0  0  0  0  0  0
   37.1514  -10.0203   66.2036 H   0  0  0  0  0  0  0  0  0  0  0  0
   35.6471   -9.4789   64.5666 H   0  0  0  0  0  0  0  0  0  0  0  0
   36.3192  -13.0811   73.7974 H   0  0  0  0  0  0  0  0  0  0  0  0
   35.0084  -10.8931   67.9029 H   0  0  0  0  0  0  0  0  0  0  0  0
   35.2320   -9.4250   73.3878 H   0  0  0  0  0  0  0  0  0  0  0  0
   33.7316   -8.6697   66.2378 H   0  0  0  0  0  0  0  0  0  0  0  0
   38.1234  -11.5043   74.2283 H   0  0  0  0  0  0  0  0  0  0  0  0
   37.2218  -11.2191   68.7742 H   0  0  0  0  0  0  0  0  0  0  0  0
   36.3182  -10.2306   69.7086 H   0  0  0  0  0  0  0  0  0  0  0  0
   34.4049  -10.1829   75.7310 H   0  0  0  0  0  0  0  0  0  0  0  0
   33.4249  -11.0760   74.7779 H   0  0  0  0  0  0  0  0  0  0  0  0
   34.5407   -5.1921   63.3960 H   0  0  0  0  0  0  0  0  0  0  0  0
   35.5728  -13.6807   70.6963 H   0  0  0  0  0  0  0  0  0  0  0  0
   33.0379  -10.6460   71.5824 H   0  0  0  0  0  0  0  0  0  0  0  0
   35.5601  -12.3443   66.1505 H   0  0  0  0  0  0  0  0  0  0  0  0
   33.9438  -10.7005   64.1981 H   0  0  0  0  0  0  0  0  0  0  0  0
   38.5427  -12.7602   72.1838 H   0  0  0  0  0  0  0  0  0  0  0  0
   32.2613   -9.3769   74.3821 H   0  0  0  0  0  0  0  0  0  0  0  0
   36.6850   -5.5100   65.8550 C   0  0  0  0  0  0  0  0  0  0  0  0
   36.2460   -6.7410   66.3410 C   0  0  0  0  0  0  0  0  0  0  0  0
   36.0290   -4.9540   64.7540 C   0  0  0  0  0  0  0  0  0  0  0  0
   34.5820   -6.7760   64.6550 C   0  0  0  0  0  0  0  0  0  0  0  0
   35.6840  -12.1890   72.0350 C   0  0  1  0  0  0  0  0  0  0  0  0
   34.6160  -11.2710   72.6460 C   0  0  1  0  0  0  0  0  0  0  0  0
   36.2710  -10.4830   66.3080 C   0  0  1  0  0  0  0  0  0  0  0  0
   35.2420   -9.8070   65.4200 C   0  0  2  0  0  0  0  0  0  0  0  0
   36.7540  -12.5600   73.0630 C   0  0  2  0  0  0  0  0  0  0  0  0
   35.7330  -10.2300   67.7150 C   0  0  1  0  0  0  0  0  0  0  0  0
   35.0920  -10.3380   73.7710 C   0  0  1  0  0  0  0  0  0  0  0  0
   34.7310   -8.6690   66.2710 C   0  0  2  0  0  0  0  0  0  0  0  0
   37.3330  -11.2860   73.6560 C   0  0  2  0  0  0  0  0  0  0  0  0
   36.7790  -10.3240   68.8260 C   0  0  2  0  0  0  0  0  0  0  0  0
   33.9970  -10.2570   74.8210 C   0  0  2  0  0  0  0  0  0  0  0  0
   35.0010   -5.5990   64.1850 N   0  0  0  0  0  0  0  0  0  0  0  0
   35.2170   -7.3770   65.7580 N   0  0  0  0  0  0  0  0  0  0  0  0
   40.1260   -9.7370   73.1390 O   0  5  0  0  0  0  0  0  0  0  0  0
   40.3070   -8.6860   68.6940 O   0  5  0  0  0  0  0  0  0  0  0  0
   36.3940   -3.8460   64.2970 O   0  0  0  0  0  0  0  0  0  0  0  0
   33.6250   -7.3380   64.1010 O   0  0  0  0  0  0  0  0  0  0  0  0
   39.7100  -11.6860   71.6380 O   0  0  0  0  0  0  0  0  0  0  0  0
   39.6620  -11.0250   69.0420 O   0  0  0  0  0  0  0  0  0  0  0  0
   35.1460   -8.9250   67.6270 O   0  0  0  0  0  0  0  0  0  0  0  0
   36.2920  -10.7340   74.4550 O   0  0  0  0  0  0  0  0  0  0  0  0
   35.0680  -13.3760   71.5040 O   0  0  0  0  0  0  0  0  0  0  0  0
   34.0200  -10.4620   71.6230 O   0  0  0  0  0  0  0  0  0  0  0  0
   36.4320  -11.8730   66.0180 O   0  0  0  0  0  0  0  0  0  0  0  0
   34.1120  -10.6400   65.1820 O   0  0  0  0  0  0  0  0  0  0  0  0
   37.8070  -13.3570   72.5040 O   0  0  0  0  0  0  0  0  0  0  0  0
   33.2080   -9.1020   74.5500 O   0  0  0  0  0  0  0  0  0  0  0  0
   37.7140  -10.3680   72.6260 O   0  0  0  0  0  0  0  0  0  0  0  0
   37.7840   -9.3080   68.7230 O   0  0  0  0  0  0  0  0  0  0  0  0
   39.1030   -9.2490   70.8580 O   0  0  0  0  0  0  0  0  0  0  0  0
   39.2270  -10.3150   72.0700 P   0  0  1  0  0  0  0  0  0  0  0  0
   39.2630   -9.5960   69.2940 P   0  0  2  0  0  0  0  0  0  0  0  0
  1 23  1  0  0  0  0
  2 24  1  0  0  0  0
  3 27  1  0  0  0  0
  4 28  1  0  0  0  0
  5 29  1  0  0  0  0
  6 30  1  0  0  0  0
  7 31  1  0  0  0  0
  8 32  1  0  0  0  0
  9 33  1  0  0  0  0
 10 34  1  0  0  0  0
 11 35  1  0  0  0  0
 12 36  1  0  0  0  0
 13 36  1  0  0  0  0
 14 37  1  0  0  0  0
 15 37  1  0  0  0  0
 16 38  1  0  0  0  0
 17 48  1  0  0  0  0
 18 49  1  0  0  0  0
 19 50  1  0  0  0  0
 20 51  1  0  0  0  0
 21 52  1  0  0  0  0
 22 53  1  0  0  0  0
 23 24  2  0  0  0  0
 23 25  1  0  0  0  0
 24 39  1  0  0  0  0
 25 38  1  0  0  0  0
 25 42  2  0  0  0  0
 26 38  1  0  0  0  0
 26 39  1  0  0  0  0
 26 43  2  0  0  0  0
 27 28  1  0  0  0  0
 27 31  1  0  0  0  0
 27 48  1  0  0  0  0
 28 33  1  0  0  0  0
 28 49  1  0  0  0  0
 29 30  1  0  0  0  0
 29 32  1  0  0  0  0
 29 50  1  0  0  0  0
 30 34  1  0  0  0  0
 30 51  1  0  0  0  0
 31 35  1  0  0  0  0
 31 52  1  0  0  0  0
 32 36  1  0  0  0  0
 32 46  1  0  0  0  0
 33 37  1  0  0  0  0
 33 47  1  0  0  0  0
 34 39  1  0  0  0  0
 34 46  1  0  0  0  0
 35 47  1  0  0  0  0
 35 54  1  0  0  0  0
 36 55  1  0  0  0  0
 37 53  1  0  0  0  0
 40 57  1  0  0  0  0
 41 58  1  0  0  0  0
 44 57  2  0  0  0  0
 45 58  2  0  0  0  0
 54 57  1  0  0  0  0
 55 58  1  0  0  0  0
 56 57  1  0  0  0  0
 56 58  1  0  0  0  0
M  CHG  2  41  -1  40  -1
M  END
> <scpdb_id>
2vkd_2

$$$$
