#    Name: 27646
#    Modification time : Wed Aug  9 00:23:18 2017

@<TRIPOS>MOLECULE
27646
   44     0     6     0     0
SMALL
NO_CHARGES


@<TRIPOS>ATOM
      1 N          -0.0730  -20.9760   14.4650 N.am      1 SEL1        0.0000 
      2 CA          1.3580  -13.9370    6.5480 C.3       2 GLL5        0.0000 
      3 CA          0.7440   -4.3270   -4.6090 C.3       2 GLL5        0.0000 
      4 CA          1.0510   -0.2630   -6.2900 C.3       2 GLL5        0.0000 
      5 CA         -1.8940  -17.2870   13.0730 C.3       2 GLL5        0.0000 
      6 CA          1.9320  -20.1970   12.1910 C.3       2 GLL5        0.0000 
      7 CA          3.0940  -18.2280   13.0430 C.3       2 GLL5        0.0000 
      8 CA          0.9980  -15.0730    4.2100 C.3       2 GLL5        0.0000 
      9 CA          3.3880   -7.1690   -0.8390 C.3       2 GLL5        0.0000 
     10 CA         -0.1100   -6.1710   -3.1870 C.3       2 GLL5        0.0000 
     11 CA         -0.5460  -17.7580   13.6420 C.3       2 GLL5        0.0000 
     12 N          -2.0190  -22.4060   13.0230 N.am      3 SEP1        0.0000 
     13 CA         -2.2360  -14.4170    6.9590 C.3       4 GLP5        0.0000 
     14 CA         -1.8990   -2.9440   -1.7090 C.3       4 GLP5        0.0000 
     15 CA         -1.9230   -1.1500   -3.4460 C.3       4 GLP5        0.0000 
     16 CA         -6.0890  -15.9620   13.0580 C.3       4 GLP5        0.0000 
     17 CA         -2.3760  -20.6940   11.3460 C.3       4 GLP5        0.0000 
     18 CA          1.0680  -21.6150    8.3720 C.3       4 GLP5        0.0000 
     19 CA          0.9410  -24.5400   12.3170 C.3       4 GLP5        0.0000 
     20 CA          5.9740  -20.4490   12.3120 C.3       4 GLP5        0.0000 
     21 CA          6.2870  -19.6320   13.5150 C.3       4 GLP5        0.0000 
     22 CA          3.0670  -18.2200    5.1290 C.3       4 GLP5        0.0000 
     23 CA          1.4750  -17.7340    1.6480 C.3       4 GLP5        0.0000 
     24 CA         -2.2110  -12.8380    4.6950 C.3       4 GLP5        0.0000 
     25 CA         -0.0920   -7.9750    0.2250 C.3       4 GLP5        0.0000 
     26 CA         -1.3280  -13.6390   12.7650 C.3       4 GLP5        0.0000 
     27 N          -1.0460  -21.6910   13.7440 N.am      5 SEC1        0.0000 
     28 CA         -0.4390  -14.1770    6.7535 C.3       6 GLC5        0.0000 
     29 CA         -0.5775   -3.6355   -3.1590 C.3       6 GLC5        0.0000 
     30 CA         -0.4360   -0.7065   -4.8680 C.3       6 GLC5        0.0000 
     31 CA         -3.9915  -16.6245   13.0655 C.3       6 GLC5        0.0000 
     32 CA         -0.2220  -20.4455   11.7685 C.3       6 GLC5        0.0000 
     33 CA          1.5000  -20.9060   10.2815 C.3       6 GLC5        0.0000 
     34 CA          1.4365  -22.3685   12.2540 C.3       6 GLC5        0.0000 
     35 CA          3.9530  -20.3230   12.2515 C.3       6 GLC5        0.0000 
     36 CA          4.6905  -18.9300   13.2790 C.3       6 GLC5        0.0000 
     37 CA          2.0325  -16.6465    4.6695 C.3       6 GLC5        0.0000 
     38 CA          1.2365  -16.4035    2.9290 C.3       6 GLC5        0.0000 
     39 CA         -0.6065  -13.9555    4.4525 C.3       6 GLC5        0.0000 
     40 CA          1.6480   -7.5720   -0.3070 C.3       6 GLC5        0.0000 
     41 CA         -0.1010   -7.0730   -1.4810 C.3       6 GLC5        0.0000 
     42 CA         -1.0045   -4.5575   -2.4480 C.3       6 GLC5        0.0000 
     43 CA         -1.2740  -15.5807   13.0613 C.3       6 GLC5        0.0000 
     44 CA         -1.4894  -19.3242   12.5559 C.3       6 GLC5        0.0000 
@<TRIPOS>BOND
@<TRIPOS>SUBSTRUCTURE
     1 SEL1        1 GROUP        1 Z    SEL  0     ROOT SEL Z 0
     2 GLL5        2 GROUP        1 Z    GLL  0     **** GLL Z 4
     3 SEP1       12 GROUP        1 Z    SEP  0     **** SEP Z 7
     4 GLP5       13 GROUP        1 Z    GLP  0     **** GLP Z 11
     5 SEC1       27 GROUP        1 Z    SEC  0     **** SEC Z 14
     6 GLC5       28 GROUP        1 Z    GLC  0     **** GLC Z 18
@<TRIPOS>SET

