@<TRIPOS>MOLECULE
3iiu_PID_1_ligand
   98   101     1     0     0
SMALL
NO_CHARGES


@<TRIPOS>ATOM
     1 C1          -0.5460   -17.7580    13.6420 C.3          1 PID611   0.0000
     2 C2          -0.6970   -18.6300    14.9000 C.3          1 PID611   0.0000
     3 C3           0.3340   -19.7590    15.1000 C.3          1 PID611   0.0000
     4 C4           1.7230   -19.4010    14.6150 C.3          1 PID611   0.0000
     5 C5           1.7860   -19.0110    13.1350 C.3          1 PID611   0.0000
     6 C6           0.6490   -18.0570    12.6850 C.3          1 PID611   0.0000
     7 C7           0.4930   -17.7860    11.1890 C.2          1 PID611   0.0000
     8 C8           0.6560   -16.5120    10.7400 C.2          1 PID611   0.0000
     9 C9           0.6570   -16.1790     9.2940 C.2          1 PID611   0.0000
    10 C10          0.5090   -17.0100     8.0980 C.2          1 PID611   0.0000
    11 C11          1.0610   -14.9380     8.8370 C.2          1 PID611   0.0000
    12 C12          1.0360   -15.0640     7.4410 C.2          1 PID611   0.0000
    13 C13          1.3580   -13.9370     6.5480 C.3          1 PID611   0.0000
    14 C14          1.4130   -13.9050     5.0700 C.2          1 PID611   0.0000
    15 C15          1.9420   -12.7610     4.5380 C.2          1 PID611   0.0000
    16 C16          2.0800   -12.4610     3.1030 C.2          1 PID611   0.0000
    17 C17          2.6380   -11.2930     2.6880 C.2          1 PID611   0.0000
    18 C18          2.6310   -11.0560     1.2390 C.2          1 PID611   0.0000
    19 C19          2.9650    -9.8600     0.6960 C.2          1 PID611   0.0000
    20 C20          2.7890    -9.6460    -0.7580 C.2          1 PID611   0.0000
    21 C21          2.9180    -8.4920    -1.4640 C.2          1 PID611   0.0000
    22 C22          2.5540    -8.5060    -2.9020 C.2          1 PID611   0.0000
    23 C23          2.3400    -7.4240    -3.6430 C.2          1 PID611   0.0000
    24 C24          2.0920    -6.4480    -4.4520 C.2          1 PID611   0.0000
    25 C25          3.1230    -5.9330    -5.4700 C.3          1 PID611   0.0000
    26 C26          3.0630    -4.4000    -5.5840 C.3          1 PID611   0.0000
    27 C27          1.6270    -3.9140    -5.7730 C.3          1 PID611   0.0000
    28 C28          0.7440    -4.3270    -4.6090 C.3          1 PID611   0.0000
    29 C29          0.6900    -5.8440    -4.4660 C.3          1 PID611   0.0000
    30 C30          0.8190    -1.7440    -6.3870 C.2          1 PID611   0.0000
    31 C31          1.0510    -0.2630    -6.2900 C.3          1 PID611   0.0000
    32 CM1         -1.8940   -17.2870    13.0730 C.3          1 PID611   0.0000
    33 CM2          1.9320   -20.1970    12.1910 C.3          1 PID611   0.0000
    34 CM3          3.0940   -18.2280    13.0430 C.3          1 PID611   0.0000
    35 CM4          0.9980   -15.0730     4.2100 C.3          1 PID611   0.0000
    36 CM5          3.3880    -7.1690    -0.8390 C.3          1 PID611   0.0000
    37 CM6          4.5370    -6.3670    -5.0490 C.3          1 PID611   0.0000
    38 CM7          2.8530    -6.5820    -6.8500 C.3          1 PID611   0.0000
    39 CM8         -0.1100    -6.1710    -3.1870 C.3          1 PID611   0.0000
    40 O1           0.5620   -16.8780    13.5150 O.3          1 PID611   0.0000
    41 O2          -0.0730   -20.9760    14.4650 O.3          1 PID611   0.0000
    42 O3           0.1300   -18.2080     8.0950 O.3          1 PID611   0.0000
    43 O4           0.6830   -16.2890     6.9370 O.2          1 PID611   0.0000
    44 O5          -0.0890    -6.3190    -5.6010 O.3          1 PID611   0.0000
    45 O6           1.7870    -2.4840    -5.7210 O.3          1 PID611   0.0000
    46 O7          -0.0750    -2.2920    -6.9790 O.2          1 PID611   0.0000
    47 H1          -1.6031   -19.0518    14.8671 H            1 PID611   0.0000
    48 H2          -0.6394   -18.0253    15.6944 H            1 PID611   0.0000
    49 H3           0.3958   -19.9387    16.0818 H            1 PID611   0.0000
    50 H4           2.3190   -20.1913    14.7574 H            1 PID611   0.0000
    51 H5           2.0564   -18.6300    15.1576 H            1 PID611   0.0000
    52 H6           0.2761   -18.5280    10.5547 H            1 PID611   0.0000
    53 H7           0.7791   -15.7763    11.4060 H            1 PID611   0.0000
    54 H8           1.3130   -14.1355     9.3778 H            1 PID611   0.0000
    55 H9           2.2695   -13.6440     6.8368 H            1 PID611   0.0000
    56 H10          0.6900   -13.2322     6.7869 H            1 PID611   0.0000
    57 H11          2.2638   -12.0663     5.1813 H            1 PID611   0.0000
    58 H12          1.7597   -13.1239     2.4262 H            1 PID611   0.0000
    59 H13          3.0297   -10.6348     3.3309 H            1 PID611   0.0000
    60 H14          2.3700   -11.8050     0.6300 H            1 PID611   0.0000
    61 H15          3.3274    -9.1281     1.2730 H            1 PID611   0.0000
    62 H16          2.5431   -10.4562    -1.2902 H            1 PID611   0.0000
    63 H17          2.4628    -9.3968    -3.3472 H            1 PID611   0.0000
    64 H18          3.6111    -4.1099    -6.3684 H            1 PID611   0.0000
    65 H19          3.4364    -3.9963    -4.7488 H            1 PID611   0.0000
    66 H20          1.2478    -4.2122    -6.6490 H            1 PID611   0.0000
    67 H21         -0.1815    -3.9812    -4.7634 H            1 PID611   0.0000
    68 H22          1.1107    -3.9332    -3.7661 H            1 PID611   0.0000
    69 H23          0.3287     0.2206    -6.7844 H            1 PID611   0.0000
    70 H24          1.0402     0.0139    -5.3291 H            1 PID611   0.0000
    71 H25          1.9385    -0.0376    -6.6919 H            1 PID611   0.0000
    72 HM11        -1.7352   -16.7268    12.2600 H            1 PID611   0.0000
    73 HM12        -2.4480   -18.0823    12.8268 H            1 PID611   0.0000
    74 HM13        -2.3757   -16.7455    13.7620 H            1 PID611   0.0000
    75 HM21         1.9664   -19.8693    11.2469 H            1 PID611   0.0000
    76 HM22         2.7755   -20.6903    12.4035 H            1 PID611   0.0000
    77 HM23         1.1500   -20.8102    12.3027 H            1 PID611   0.0000
    78 HM31         3.2337   -17.9219    12.1013 H            1 PID611   0.0000
    79 HM32         3.0502   -17.4335    13.6487 H            1 PID611   0.0000
    80 HM33         3.8545   -18.8159    13.3187 H            1 PID611   0.0000
    81 HM41         1.1155   -14.8354     3.2458 H            1 PID611   0.0000
    82 HM42         1.5655   -15.8666     4.4293 H            1 PID611   0.0000
    83 HM43         0.0379   -15.2912     4.3849 H            1 PID611   0.0000
    84 HM51         3.4077    -6.4571    -1.5410 H            1 PID611   0.0000
    85 HM52         2.7569    -6.9016    -0.1108 H            1 PID611   0.0000
    86 HM53         4.3052    -7.2874    -0.4585 H            1 PID611   0.0000
    87 HM61         5.2017    -6.0288    -5.7152 H            1 PID611   0.0000
    88 HM62         4.7470    -5.9892    -4.1473 H            1 PID611   0.0000
    89 HM63         4.5818    -7.3653    -5.0108 H            1 PID611   0.0000
    90 HM71         3.5232    -6.2475    -7.5125 H            1 PID611   0.0000
    91 HM72         2.9293    -7.5760    -6.7716 H            1 PID611   0.0000
    92 HM73         1.9322    -6.3416    -7.1570 H            1 PID611   0.0000
    93 HM81        -1.0172    -5.7543    -3.2456 H            1 PID611   0.0000
    94 HM82        -0.2038    -7.1625    -3.0969 H            1 PID611   0.0000
    95 HM83         0.3727    -5.8080    -2.3900 H            1 PID611   0.0000
    96 H50         -0.1567   -21.6983    15.1515 H            1 PID611   0.0000
    97 H51          0.0552   -18.7066     7.2314 H            1 PID611   0.0000
    98 H52         -0.9986    -5.9041    -5.5780 H            1 PID611   0.0000
@<TRIPOS>BOND
     1    1    2       1
     2    1    6       1
     3    1   32       1
     4    1   40       1
     5    2    3       1
     6    3    4       1
     7    3   41       1
     8    4    5       1
     9    5    6       1
    10    5   33       1
    11    5   34       1
    12    6    7       1
    13    6   40       1
    14    7    8       2
    15    8    9       1
    16    9   10       2
    17    9   11       1
    18   10   42       1
    19   10   43       1
    20   11   12       2
    21   12   13       1
    22   12   43       1
    23   13   14       1
    24   14   15       2
    25   14   35       1
    26   15   16       1
    27   16   17       2
    28   17   18       1
    29   18   19       2
    30   19   20       1
    31   20   21       2
    32   21   22       1
    33   21   36       1
    34   22   23       2
    35   23   24       2
    36   24   25       1
    37   24   29       1
    38   25   26       1
    39   25   37       1
    40   25   38       1
    41   26   27       1
    42   27   28       1
    43   27   45       1
    44   28   29       1
    45   29   39       1
    46   29   44       1
    47   30   31       1
    48   30   45       1
    49   30   46       2
    50    2   47       1
    51    2   48       1
    52    3   49       1
    53    4   50       1
    54    4   51       1
    55    7   52       1
    56    8   53       1
    57   11   54       1
    58   13   55       1
    59   13   56       1
    60   15   57       1
    61   16   58       1
    62   17   59       1
    63   18   60       1
    64   19   61       1
    65   20   62       1
    66   22   63       1
    67   26   64       1
    68   26   65       1
    69   27   66       1
    70   28   67       1
    71   28   68       1
    72   31   69       1
    73   31   70       1
    74   31   71       1
    75   32   72       1
    76   32   73       1
    77   32   74       1
    78   33   75       1
    79   33   76       1
    80   33   77       1
    81   34   78       1
    82   34   79       1
    83   34   80       1
    84   35   81       1
    85   35   82       1
    86   35   83       1
    87   36   84       1
    88   36   85       1
    89   36   86       1
    90   37   87       1
    91   37   88       1
    92   37   89       1
    93   38   90       1
    94   38   91       1
    95   38   92       1
    96   39   93       1
    97   39   94       1
    98   39   95       1
    99   41   96       1
   100   42   97       1
   101   44   98       1
@<TRIPOS>SUBSTRUCTURE
     1 PID611      1 GROUP             4 M     PID     0 **** PID M 611
