3iiu_PID_1_ligand
  -OEChem-08111718373D

 98101  0     1  0  0  0  0  0999 V2000
    1.3130  -14.1355    9.3778 H   0  0  0  0  0  0  0  0  0  0  0  0
    2.4628   -9.3968   -3.3472 H   0  0  0  0  0  0  0  0  0  0  0  0
    0.7791  -15.7763   11.4060 H   0  0  0  0  0  0  0  0  0  0  0  0
    2.3700  -11.8050    0.6300 H   0  0  0  0  0  0  0  0  0  0  0  0
    3.0297  -10.6348    3.3309 H   0  0  0  0  0  0  0  0  0  0  0  0
    3.3274   -9.1281    1.2730 H   0  0  0  0  0  0  0  0  0  0  0  0
    1.7597  -13.1239    2.4262 H   0  0  0  0  0  0  0  0  0  0  0  0
    2.5431  -10.4562   -1.2902 H   0  0  0  0  0  0  0  0  0  0  0  0
    2.2638  -12.0663    5.1813 H   0  0  0  0  0  0  0  0  0  0  0  0
    0.2761  -18.5280   10.5547 H   0  0  0  0  0  0  0  0  0  0  0  0
    3.6111   -4.1099   -6.3684 H   0  0  0  0  0  0  0  0  0  0  0  0
    3.4364   -3.9963   -4.7488 H   0  0  0  0  0  0  0  0  0  0  0  0
   -0.1815   -3.9812   -4.7634 H   0  0  0  0  0  0  0  0  0  0  0  0
    1.1107   -3.9332   -3.7661 H   0  0  0  0  0  0  0  0  0  0  0  0
    2.3190  -20.1913   14.7574 H   0  0  0  0  0  0  0  0  0  0  0  0
    2.0564  -18.6300   15.1576 H   0  0  0  0  0  0  0  0  0  0  0  0
   -1.6031  -19.0518   14.8671 H   0  0  0  0  0  0  0  0  0  0  0  0
   -0.6394  -18.0253   15.6944 H   0  0  0  0  0  0  0  0  0  0  0  0
    1.2478   -4.2122   -6.6490 H   0  0  0  0  0  0  0  0  0  0  0  0
    0.3958  -19.9387   16.0818 H   0  0  0  0  0  0  0  0  0  0  0  0
    3.4077   -6.4571   -1.5410 H   0  0  0  0  0  0  0  0  0  0  0  0
    2.7569   -6.9016   -0.1108 H   0  0  0  0  0  0  0  0  0  0  0  0
    4.3052   -7.2874   -0.4585 H   0  0  0  0  0  0  0  0  0  0  0  0
    1.1155  -14.8354    3.2458 H   0  0  0  0  0  0  0  0  0  0  0  0
    1.5655  -15.8666    4.4293 H   0  0  0  0  0  0  0  0  0  0  0  0
    0.0379  -15.2912    4.3849 H   0  0  0  0  0  0  0  0  0  0  0  0
    0.3287    0.2206   -6.7844 H   0  0  0  0  0  0  0  0  0  0  0  0
    1.0402    0.0139   -5.3291 H   0  0  0  0  0  0  0  0  0  0  0  0
    1.9385   -0.0376   -6.6919 H   0  0  0  0  0  0  0  0  0  0  0  0
    5.2017   -6.0288   -5.7152 H   0  0  0  0  0  0  0  0  0  0  0  0
    4.7470   -5.9892   -4.1473 H   0  0  0  0  0  0  0  0  0  0  0  0
    4.5818   -7.3653   -5.0108 H   0  0  0  0  0  0  0  0  0  0  0  0
    3.5232   -6.2475   -7.5125 H   0  0  0  0  0  0  0  0  0  0  0  0
    2.9293   -7.5760   -6.7716 H   0  0  0  0  0  0  0  0  0  0  0  0
    1.9322   -6.3416   -7.1570 H   0  0  0  0  0  0  0  0  0  0  0  0
   -1.0172   -5.7543   -3.2456 H   0  0  0  0  0  0  0  0  0  0  0  0
   -0.2038   -7.1625   -3.0969 H   0  0  0  0  0  0  0  0  0  0  0  0
    0.3727   -5.8080   -2.3900 H   0  0  0  0  0  0  0  0  0  0  0  0
    1.9664  -19.8693   11.2469 H   0  0  0  0  0  0  0  0  0  0  0  0
    2.7755  -20.6903   12.4035 H   0  0  0  0  0  0  0  0  0  0  0  0
    1.1500  -20.8102   12.3027 H   0  0  0  0  0  0  0  0  0  0  0  0
    3.2337  -17.9219   12.1013 H   0  0  0  0  0  0  0  0  0  0  0  0
    3.0502  -17.4335   13.6487 H   0  0  0  0  0  0  0  0  0  0  0  0
    3.8545  -18.8159   13.3187 H   0  0  0  0  0  0  0  0  0  0  0  0
   -1.7352  -16.7268   12.2600 H   0  0  0  0  0  0  0  0  0  0  0  0
   -2.4480  -18.0823   12.8268 H   0  0  0  0  0  0  0  0  0  0  0  0
   -2.3757  -16.7455   13.7620 H   0  0  0  0  0  0  0  0  0  0  0  0
    2.2695  -13.6440    6.8368 H   0  0  0  0  0  0  0  0  0  0  0  0
    0.6900  -13.2322    6.7869 H   0  0  0  0  0  0  0  0  0  0  0  0
    0.0552  -18.7066    7.2314 H   0  0  0  0  0  0  0  0  0  0  0  0
   -0.1567  -21.6983   15.1515 H   0  0  0  0  0  0  0  0  0  0  0  0
   -0.9986   -5.9041   -5.5780 H   0  0  0  0  0  0  0  0  0  0  0  0
    2.3400   -7.4240   -3.6430 C   0  0  0  0  0  0  0  0  0  0  0  0
    1.0610  -14.9380    8.8370 C   0  0  0  0  0  0  0  0  0  0  0  0
    0.6570  -16.1790    9.2940 C   0  0  0  0  0  0  0  0  0  0  0  0
    1.0360  -15.0640    7.4410 C   0  0  0  0  0  0  0  0  0  0  0  0
    0.5090  -17.0100    8.0980 C   0  0  0  0  0  0  0  0  0  0  0  0
    2.0920   -6.4480   -4.4520 C   0  0  0  0  0  0  0  0  0  0  0  0
    2.5540   -8.5060   -2.9020 C   0  0  0  0  0  0  0  0  0  0  0  0
    0.6560  -16.5120   10.7400 C   0  0  0  0  0  0  0  0  0  0  0  0
    2.6310  -11.0560    1.2390 C   0  0  0  0  0  0  0  0  0  0  0  0
    2.6380  -11.2930    2.6880 C   0  0  0  0  0  0  0  0  0  0  0  0
    2.9650   -9.8600    0.6960 C   0  0  0  0  0  0  0  0  0  0  0  0
    2.0800  -12.4610    3.1030 C   0  0  0  0  0  0  0  0  0  0  0  0
    2.7890   -9.6460   -0.7580 C   0  0  0  0  0  0  0  0  0  0  0  0
    1.9420  -12.7610    4.5380 C   0  0  0  0  0  0  0  0  0  0  0  0
    0.4930  -17.7860   11.1890 C   0  0  0  0  0  0  0  0  0  0  0  0
    2.9180   -8.4920   -1.4640 C   0  0  0  0  0  0  0  0  0  0  0  0
    1.4130  -13.9050    5.0700 C   0  0  0  0  0  0  0  0  0  0  0  0
    0.8190   -1.7440   -6.3870 C   0  0  0  0  0  0  0  0  0  0  0  0
    3.0630   -4.4000   -5.5840 C   0  0  1  0  0  0  0  0  0  0  0  0
    0.7440   -4.3270   -4.6090 C   0  0  2  0  0  0  0  0  0  0  0  0
    1.7230  -19.4010   14.6150 C   0  0  2  0  0  0  0  0  0  0  0  0
   -0.6970  -18.6300   14.9000 C   0  0  1  0  0  0  0  0  0  0  0  0
    1.6270   -3.9140   -5.7730 C   0  0  1  0  0  0  0  0  0  0  0  0
    0.3340  -19.7590   15.1000 C   0  0  1  0  0  0  0  0  0  0  0  0
    3.1230   -5.9330   -5.4700 C   0  0  1  0  0  0  0  0  0  0  0  0
    0.6900   -5.8440   -4.4660 C   0  0  2  0  0  0  0  0  0  0  0  0
    0.6490  -18.0570   12.6850 C   0  0  2  0  0  0  0  0  0  0  0  0
    1.7860  -19.0110   13.1350 C   0  0  2  0  0  0  0  0  0  0  0  0
   -0.5460  -17.7580   13.6420 C   0  0  1  0  0  0  0  0  0  0  0  0
    3.3880   -7.1690   -0.8390 C   0  0  0  0  0  0  0  0  0  0  0  0
    0.9980  -15.0730    4.2100 C   0  0  0  0  0  0  0  0  0  0  0  0
    1.0510   -0.2630   -6.2900 C   0  0  0  0  0  0  0  0  0  0  0  0
    4.5370   -6.3670   -5.0490 C   0  0  0  0  0  0  0  0  0  0  0  0
    2.8530   -6.5820   -6.8500 C   0  0  0  0  0  0  0  0  0  0  0  0
   -0.1100   -6.1710   -3.1870 C   0  0  0  0  0  0  0  0  0  0  0  0
    1.9320  -20.1970   12.1910 C   0  0  0  0  0  0  0  0  0  0  0  0
    3.0940  -18.2280   13.0430 C   0  0  0  0  0  0  0  0  0  0  0  0
   -1.8940  -17.2870   13.0730 C   0  0  0  0  0  0  0  0  0  0  0  0
    1.3580  -13.9370    6.5480 C   0  0  2  0  0  0  0  0  0  0  0  0
   -0.0750   -2.2920   -6.9790 O   0  0  0  0  0  0  0  0  0  0  0  0
    0.6830  -16.2890    6.9370 O   0  0  0  0  0  0  0  0  0  0  0  0
    0.5620  -16.8780   13.5150 O   0  0  0  0  0  0  0  0  0  0  0  0
    0.1300  -18.2080    8.0950 O   0  0  0  0  0  0  0  0  0  0  0  0
   -0.0730  -20.9760   14.4650 O   0  0  0  0  0  0  0  0  0  0  0  0
   -0.0890   -6.3190   -5.6010 O   0  0  0  0  0  0  0  0  0  0  0  0
    1.7870   -2.4840   -5.7210 O   0  0  0  0  0  0  0  0  0  0  0  0
  1 54  1  0  0  0  0
  2 59  1  0  0  0  0
  3 60  1  0  0  0  0
  4 61  1  0  0  0  0
  5 62  1  0  0  0  0
  6 63  1  0  0  0  0
  7 64  1  0  0  0  0
  8 65  1  0  0  0  0
  9 66  1  0  0  0  0
 10 67  1  0  0  0  0
 11 71  1  0  0  0  0
 12 71  1  0  0  0  0
 13 72  1  0  0  0  0
 14 72  1  0  0  0  0
 15 73  1  0  0  0  0
 16 73  1  0  0  0  0
 17 74  1  0  0  0  0
 18 74  1  0  0  0  0
 19 75  1  0  0  0  0
 20 76  1  0  0  0  0
 21 82  1  0  0  0  0
 22 82  1  0  0  0  0
 23 82  1  0  0  0  0
 24 83  1  0  0  0  0
 25 83  1  0  0  0  0
 26 83  1  0  0  0  0
 27 84  1  0  0  0  0
 28 84  1  0  0  0  0
 29 84  1  0  0  0  0
 30 85  1  0  0  0  0
 31 85  1  0  0  0  0
 32 85  1  0  0  0  0
 33 86  1  0  0  0  0
 34 86  1  0  0  0  0
 35 86  1  0  0  0  0
 36 87  1  0  0  0  0
 37 87  1  0  0  0  0
 38 87  1  0  0  0  0
 39 88  1  0  0  0  0
 40 88  1  0  0  0  0
 41 88  1  0  0  0  0
 42 89  1  0  0  0  0
 43 89  1  0  0  0  0
 44 89  1  0  0  0  0
 45 90  1  0  0  0  0
 46 90  1  0  0  0  0
 47 90  1  0  0  0  0
 48 91  1  0  0  0  0
 49 91  1  0  0  0  0
 50 95  1  0  0  0  0
 51 96  1  0  0  0  0
 52 97  1  0  0  0  0
 53 58  2  0  0  0  0
 53 59  2  0  0  0  0
 54 55  1  0  0  0  0
 54 56  2  0  0  0  0
 55 57  2  0  0  0  0
 55 60  1  0  0  0  0
 56 91  1  0  0  0  0
 56 93  1  0  0  0  0
 57 93  1  0  0  0  0
 57 95  1  0  0  0  0
 58 77  1  0  0  0  0
 58 78  1  0  0  0  0
 59 68  1  0  0  0  0
 60 67  2  0  0  0  0
 61 62  1  0  0  0  0
 61 63  2  0  0  0  0
 62 64  2  0  0  0  0
 63 65  1  0  0  0  0
 64 66  1  0  0  0  0
 65 68  2  0  0  0  0
 66 69  2  0  0  0  0
 67 79  1  0  0  0  0
 68 82  1  0  0  0  0
 69 83  1  0  0  0  0
 69 91  1  0  0  0  0
 70 84  1  0  0  0  0
 70 92  2  0  0  0  0
 70 98  1  0  0  0  0
 71 75  1  0  0  0  0
 71 77  1  0  0  0  0
 72 75  1  0  0  0  0
 72 78  1  0  0  0  0
 73 76  1  0  0  0  0
 73 80  1  0  0  0  0
 74 76  1  0  0  0  0
 74 81  1  0  0  0  0
 75 98  1  0  0  0  0
 76 96  1  0  0  0  0
 77 85  1  0  0  0  0
 77 86  1  0  0  0  0
 78 87  1  0  0  0  0
 78 97  1  0  0  0  0
 79 80  1  0  0  0  0
 79 81  1  0  0  0  0
 79 94  1  0  0  0  0
 80 88  1  0  0  0  0
 80 89  1  0  0  0  0
 81 90  1  0  0  0  0
 81 94  1  0  0  0  0
M  END
> <scpdb_id>
3iiu_1

$$$$
