#    Name: 21611
#    Modification time : Tue Aug  8 19:21:11 2017

@<TRIPOS>MOLECULE
21611
  122     0    12     0     0
SMALL
NO_CHARGES


@<TRIPOS>ATOM
      1 N           2.5140   22.5260   26.4390 N.am      1 SEL1        0.0000 
      2 N          -6.2450   25.5830   28.9080 N.am      1 SEL1        0.0000 
      3 N           5.3900   18.1380   32.6290 N.am      1 SEL1        0.0000 
      4 N          -5.2380   23.2800   28.3960 N.am      1 SEL1        0.0000 
      5 N          -0.9480   22.2780   35.3850 N.am      1 SEL1        0.0000 
      6 N          -3.1260   25.0210   26.7220 N.am      1 SEL1        0.0000 
      7 N          -6.8310   25.4670   37.5770 N.am      1 SEL1        0.0000 
      8 N          -7.5570   26.8600   35.5760 N.am      1 SEL1        0.0000 
      9 O           4.9820   21.7660   29.7970 O.2       2 ALL2        0.0000 
     10 NZ         -7.5570   26.8600   35.5760 N.4       3 LYL3        0.0000 
     11 CA          6.3090   21.3490   33.6740 C.3       4 GLL5        0.0000 
     12 CA          6.3320   21.5940   31.8070 C.3       4 GLL5        0.0000 
     13 CA          5.2010   22.8950   27.6930 C.3       4 GLL5        0.0000 
     14 CA          0.8490   23.9310   27.5820 C.3       4 GLL5        0.0000 
     15 CA          1.5110   23.1010   29.9150 C.3       4 GLL5        0.0000 
     16 CA          0.0650   21.7110   28.3320 C.3       4 GLL5        0.0000 
     17 CA          4.6300   18.5300   34.9320 C.3       4 GLL5        0.0000 
     18 CA          3.0960   18.3650   34.5370 C.3       4 GLL5        0.0000 
     19 CA          2.3480   18.1580   35.8290 C.3       4 GLL5        0.0000 
     20 CA          0.7940   18.0610   35.5200 C.3       4 GLL5        0.0000 
     21 CA         -5.2830   25.2370   31.6810 C.3       4 GLL5        0.0000 
     22 CA          0.0640   17.8590   36.8720 C.3       4 GLL5        0.0000 
     23 CA          0.2100   16.3520   37.3280 C.3       4 GLL5        0.0000 
     24 CA         -1.3040   13.7440   38.2650 C.3       4 GLL5        0.0000 
     25 CA         -1.0290   12.2640   38.7300 C.3       4 GLL5        0.0000 
     26 CA         -5.0760   24.5340   33.1100 C.3       4 GLL5        0.0000 
     27 CA         -0.5980   16.0960   38.6130 C.3       4 GLL5        0.0000 
     28 CA         -0.3950   14.6160   39.0300 C.3       4 GLL5        0.0000 
     29 CA         -1.6280   10.4000   40.3300 C.3       4 GLL5        0.0000 
     30 CA         -1.7900   11.9350   40.0620 C.3       4 GLL5        0.0000 
     31 CA         -0.7820   23.8070   29.4510 C.3       4 GLL5        0.0000 
     32 N           1.1040   20.4600   25.0630 N.am      5 SEP1        0.0000 
     33 N          -8.3010   24.0990   27.4670 N.am      5 SEP1        0.0000 
     34 N           4.4390   16.9000   30.0880 N.am      5 SEP1        0.0000 
     35 N          -5.1290   20.5250   28.7200 N.am      5 SEP1        0.0000 
     36 N          -3.0310   22.6410   37.7870 N.am      5 SEP1        0.0000 
     37 N          -4.7700   26.9850   25.5720 N.am      5 SEP1        0.0000 
     38 N          -9.6170   24.6520   37.6780 N.am      5 SEP1        0.0000 
     39 N          -7.5200   23.3630   39.3100 N.am      5 SEP1        0.0000 
     40 N          -8.2910   26.6530   32.5950 N.am      5 SEP1        0.0000 
     41 N          -9.4330   25.0990   33.9350 N.am      5 SEP1        0.0000 
     42 O           4.0150   19.4070   28.7340 O.2       6 ALP2        0.0000 
     43 NZ         -9.1380   25.5920   32.7460 N.4       7 LYP3        0.0000 
     44 CA          5.5040   23.4370   36.7520 C.3       8 GLP5        0.0000 
     45 CA          8.4500   19.3240   29.1260 C.3       8 GLP5        0.0000 
     46 CA          8.6940   23.1560   29.6140 C.3       8 GLP5        0.0000 
     47 CA          7.4990   20.0920   27.1260 C.3       8 GLP5        0.0000 
     48 CA         -0.2870   25.6690   24.7210 C.3       8 GLP5        0.0000 
     49 CA          0.5110   19.4950   31.9050 C.3       8 GLP5        0.0000 
     50 CA          1.0790   18.8980   30.5470 C.3       8 GLP5        0.0000 
     51 CA         -1.9740   20.0530   25.6360 C.3       8 GLP5        0.0000 
     52 CA          4.6150   17.0900   38.8260 C.3       8 GLP5        0.0000 
     53 CA          2.3370   18.0260   30.8350 C.3       8 GLP5        0.0000 
     54 CA          3.0530   19.0310   39.3730 C.3       8 GLP5        0.0000 
     55 CA         -9.5080   25.4750   30.2950 C.3       8 GLP5        0.0000 
     56 CA         -2.3320   20.2810   38.3000 C.3       8 GLP5        0.0000 
     57 CA          1.9270   19.5450   40.0600 C.3       8 GLP5        0.0000 
     58 CA          2.8920   14.3450   35.1560 C.3       8 GLP5        0.0000 
     59 CA          2.7330   16.9350   40.5320 C.3       8 GLP5        0.0000 
     60 CA         -3.9140   16.3870   36.1160 C.3       8 GLP5        0.0000 
     61 CA         -5.3130   11.3600   37.8370 C.3       8 GLP5        0.0000 
     62 CA          0.0540    8.9040   37.1980 C.3       8 GLP5        0.0000 
     63 CA         -7.4440   21.4550   32.6900 C.3       8 GLP5        0.0000 
     64 CA         -2.7660   18.9100   34.5740 C.3       8 GLP5        0.0000 
     65 CA         -2.4840   19.2680   39.2120 C.3       8 GLP5        0.0000 
     66 CA          1.6610   17.4540   41.2630 C.3       8 GLP5        0.0000 
     67 CA         -1.5690   11.8550   34.4490 C.3       8 GLP5        0.0000 
     68 CA         -2.7610   15.8110   41.8610 C.3       8 GLP5        0.0000 
     69 CA          2.5600   12.7240   37.0860 C.3       8 GLP5        0.0000 
     70 CA          1.7280   12.2630   41.2030 C.3       8 GLP5        0.0000 
     71 CA         -0.7770    7.0010   39.6770 C.3       8 GLP5        0.0000 
     72 CA         -5.6820   11.1220   39.3020 C.3       8 GLP5        0.0000 
     73 CA         -2.9340   13.6380   42.9950 C.3       8 GLP5        0.0000 
     74 CA         -3.2100   21.0790   30.3020 C.3       8 GLP5        0.0000 
     75 N           1.8090   21.4930   25.7510 N.am      9 SEC1        0.0000 
     76 N          -7.2730   24.8410   28.1875 N.am      9 SEC1        0.0000 
     77 N           4.9145   17.5190   31.3585 N.am      9 SEC1        0.0000 
     78 N          -5.1835   21.9025   28.5580 N.am      9 SEC1        0.0000 
     79 N          -1.9895   22.4595   36.5860 N.am      9 SEC1        0.0000 
     80 N          -3.9480   26.0030   26.1470 N.am      9 SEC1        0.0000 
     81 N          -8.2240   25.0595   37.6275 N.am      9 SEC1        0.0000 
     82 N          -7.1755   24.4150   38.4435 N.am      9 SEC1        0.0000 
     83 N          -7.9240   26.7565   34.0855 N.am      9 SEC1        0.0000 
     84 N          -8.4950   25.9795   34.7555 N.am      9 SEC1        0.0000 
     85 O           4.4985   20.5865   29.2655 O.2      10 ALC2        0.0000 
     86 NZ         -8.3475   26.2260   34.1610 N.4      11 LYC3        0.0000 
     87 CA          5.9065   22.3930   35.2130 C.3      12 GLC5        0.0000 
     88 CA          7.3910   20.4590   30.4665 C.3      12 GLC5        0.0000 
     89 CA          7.5130   22.3750   30.7105 C.3      12 GLC5        0.0000 
     90 CA          6.3500   21.4935   27.4095 C.3      12 GLC5        0.0000 
     91 CA          6.9475   23.0255   28.6535 C.3      12 GLC5        0.0000 
     92 CA          0.2810   24.8000   26.1515 C.3      12 GLC5        0.0000 
     93 CA          1.0110   21.2980   30.9100 C.3      12 GLC5        0.0000 
     94 CA          0.5720   20.3045   29.4395 C.3      12 GLC5        0.0000 
     95 CA         -0.9545   20.8820   26.9840 C.3      12 GLC5        0.0000 
     96 CA          4.6225   17.8100   36.8790 C.3      12 GLC5        0.0000 
     97 CA          2.7165   18.1955   32.6860 C.3      12 GLC5        0.0000 
     98 CA          2.7005   18.5945   37.6010 C.3      12 GLC5        0.0000 
     99 CA          0.6525   18.7780   33.7125 C.3      12 GLC5        0.0000 
    100 CA         -7.3955   25.3560   30.9880 C.3      12 GLC5        0.0000 
    101 CA         -1.1340   19.0700   37.5860 C.3      12 GLC5        0.0000 
    102 CA          0.9955   18.7020   38.4660 C.3      12 GLC5        0.0000 
    103 CA          1.5510   15.3485   36.2420 C.3      12 GLC5        0.0000 
    104 CA          1.4715   16.6435   38.9300 C.3      12 GLC5        0.0000 
    105 CA         -2.6090   15.0655   37.1905 C.3      12 GLC5        0.0000 
    106 CA         -3.1710   11.8120   38.2835 C.3      12 GLC5        0.0000 
    107 CA         -0.4875   10.5840   37.9640 C.3      12 GLC5        0.0000 
    108 CA         -6.3117   23.1702   32.5427 C.3      12 GLC5        0.0000 
    109 CA          2.3250   16.2531   35.2537 C.3      12 GLC5        0.0000 
    110 CA         -1.1685   18.4350   35.3850 C.3      12 GLC5        0.0000 
    111 CA         -1.3390   17.7460   38.5913 C.3      12 GLC5        0.0000 
    112 CA         -2.0540   16.3055   37.0433 C.3      12 GLC5        0.0000 
    113 CA          0.5823   16.4050   40.0423 C.3      12 GLC5        0.0000 
    114 CA         -1.3678   12.4295   36.4733 C.3      12 GLC5        0.0000 
    115 CA         -1.8306   15.1805   40.2021 C.3      12 GLC5        0.0000 
    116 CA          0.8104   12.9730   37.8874 C.3      12 GLC5        0.0000 
    117 CA          0.3944   12.7425   39.9459 C.3      12 GLC5        0.0000 
    118 CA         -1.3462    8.6225   40.3555 C.3      12 GLC5        0.0000 
    119 CA          0.1046   11.7564   40.5330 C.3      12 GLC5        0.0000 
    120 CA         -3.8190   10.8749   40.1345 C.3      12 GLC5        0.0000 
    121 CA         -2.4450   12.1329   41.9810 C.3      12 GLC5        0.0000 
    122 CA         -1.5899   22.0175   29.5689 C.3      12 GLC5        0.0000 
@<TRIPOS>BOND
@<TRIPOS>SUBSTRUCTURE
     1 SEL1        1 GROUP        1 Z    SEL  0     ROOT SEL Z 0
     2 ALL2        9 GROUP        1 Z    ALL  0     **** ALL Z 1
     3 LYL3       10 GROUP        1 Z    LYL  0     **** LYL Z 2
     4 GLL5       11 GROUP        1 Z    GLL  0     **** GLL Z 4
     5 SEP1       32 GROUP        1 Z    SEP  0     **** SEP Z 7
     6 ALP2       42 GROUP        1 Z    ALP  0     **** ALP Z 8
     7 LYP3       43 GROUP        1 Z    LYP  0     **** LYP Z 9
     8 GLP5       44 GROUP        1 Z    GLP  0     **** GLP Z 11
     9 SEC1       75 GROUP        1 Z    SEC  0     **** SEC Z 14
    10 ALC2       85 GROUP        1 Z    ALC  0     **** ALC Z 15
    11 LYC3       86 GROUP        1 Z    LYC  0     **** LYC Z 16
    12 GLC5       87 GROUP        1 Z    GLC  0     **** GLC Z 18
@<TRIPOS>SET

