@<TRIPOS>MOLECULE
2yne_NHW_3_ligand
  124   126     1     0     0
SMALL
NO_CHARGES


@<TRIPOS>ATOM
     1 S1           6.3090    21.3490    33.6740 S.3          1 NHW1000   0.0000
     2 C2           6.3320    21.5940    31.8070 C.3          1 NHW1000   0.0000
     3 C3           4.8860    21.6240    31.2540 C.3          1 NHW1000   0.0000
     4 N4           4.9820    21.7660    29.7970 N.am         1 NHW1000   0.0000
     5 C5           5.1580    22.9610    29.2390 C.2          1 NHW1000   0.0000
     6 O5           5.2970    24.0340    29.8580 O.2          1 NHW1000   0.0000
     7 C6           5.2010    22.8950    27.6930 C.3          1 NHW1000   0.0000
     8 C7           4.7280    24.1930    27.0670 C.3          1 NHW1000   0.0000
     9 N8           3.2840    24.4440    27.3970 N.am         1 NHW1000   0.0000
    10 C9           2.2940    23.5430    27.1090 C.2          1 NHW1000   0.0000
    11 O9           2.5140    22.5260    26.4390 O.2          1 NHW1000   0.0000
    12 CP           6.8440    19.5530    33.8540 C.3          1 NHW1000   0.0000
    13 C10          0.8490    23.9310    27.5820 C.3          1 NHW1000   0.0000
    14 O10          0.7440    25.3350    28.0150 O.3          1 NHW1000   0.0000
    15 C11          0.4190    23.1530    28.7800 C.3          1 NHW1000   0.0000
    16 C12         -0.7820    23.8070    29.4510 C.3          1 NHW1000   0.0000
    17 C13          1.5110    23.1010    29.9150 C.3          1 NHW1000   0.0000
    18 C14          0.0650    21.7110    28.3320 C.3          1 NHW1000   0.0000
    19 N1A          1.3200    21.6910    35.2020 N.ar         1 NHW1000   0.0000
    20 O1A         -6.2450    25.5830    28.9080 O.co2        1 NHW1000   0.0000
    21 P1A         -5.1770    24.5520    29.1870 P.3          1 NHW1000   0.0000
    22 C1M          5.6040    18.6520    33.7270 C.2          1 NHW1000   0.0000
    23 O1M          5.3900    18.1380    32.6290 O.2          1 NHW1000   0.0000
    24 C1X         -2.9640    24.3030    34.2310 C.3          1 NHW1000   0.0000
    25 C2A          0.0960    21.5540    35.7180 C.ar         1 NHW1000   0.0000
    26 O2A         -5.2380    23.2800    28.3960 O.co2        1 NHW1000  -1.0000
    27 P2A         -2.6010    25.1390    28.1110 P.3          1 NHW1000   0.0000
    28 C2M          4.6300    18.5300    34.9320 C.3          1 NHW1000   0.0000
    29 C2X         -3.4160    25.7530    34.3880 C.3          1 NHW1000   0.0000
    30 O2X         -3.0050    26.1480    35.6740 O.3          1 NHW1000   0.0000
    31 N3A         -0.9480    22.2780    35.3850 N.ar         1 NHW1000   0.0000
    32 O3A         -3.6900    25.2710    29.1470 O.3          1 NHW1000   0.0000
    33 C3M          3.0960    18.3650    34.5370 C.3          1 NHW1000   0.0000
    34 C3X         -4.9740    25.5910    34.2080 C.3          1 NHW1000   0.0000
    35 O3X         -5.6740    25.0220    35.4030 O.3          1 NHW1000   0.0000
    36 P3X         -6.4720    26.1450    36.2910 P.3          1 NHW1000   0.0000
    37 C4A         -0.7380    23.2220    34.4480 C.ar         1 NHW1000   0.0000
    38 O4A         -3.1260    25.0210    26.7220 O.co2        1 NHW1000   0.0000
    39 C4M          2.3480    18.1580    35.8290 C.3          1 NHW1000   0.0000
    40 C4X         -5.0760    24.5340    33.1100 C.3          1 NHW1000   0.0000
    41 O4X         -3.8230    23.7730    33.1510 O.3          1 NHW1000   0.0000
    42 C5A          0.5350    23.4550    33.9360 C.ar         1 NHW1000   0.0000
    43 O5A         -1.6690    26.2480    28.4280 O.co2        1 NHW1000  -1.0000
    44 C5M          0.7940    18.0610    35.5200 C.3          1 NHW1000   0.0000
    45 C5X         -5.2830    25.2370    31.6810 C.3          1 NHW1000   0.0000
    46 O5X         -5.2480    24.1880    30.7300 O.3          1 NHW1000   0.0000
    47 C6A          1.5680    22.6420    34.2890 C.ar         1 NHW1000   0.0000
    48 N6A          2.8450    22.7660    33.8380 N.pl3        1 NHW1000   0.0000
    49 O6A         -1.9210    23.7850    28.4470 O.3          1 NHW1000   0.0000
    50 C6M          0.0640    17.8590    36.8720 C.3          1 NHW1000   0.0000
    51 N7A          0.4610    24.4660    32.9930 N.2          1 NHW1000   0.0000
    52 O7A         -6.8310    25.4670    37.5770 O.co2        1 NHW1000   0.0000
    53 C7M          0.2100    16.3520    37.3280 C.3          1 NHW1000   0.0000
    54 C8A         -0.8030    24.8870    33.0100 C.2          1 NHW1000   0.0000
    55 O8A         -5.3770    27.2610    36.5950 O.co2        1 NHW1000  -1.0000
    56 C8M         -0.5980    16.0960    38.6130 C.3          1 NHW1000   0.0000
    57 N9A         -1.5330    24.1500    33.8980 N.pl3        1 NHW1000   0.0000
    58 O9A         -7.5570    26.8600    35.5760 O.co2        1 NHW1000  -1.0000
    59 C9M         -0.3950    14.6160    39.0300 C.3          1 NHW1000   0.0000
    60 CAM         -1.3040    13.7440    38.2650 C.3          1 NHW1000   0.0000
    61 CBM         -1.0290    12.2640    38.7300 C.3          1 NHW1000   0.0000
    62 CCM         -1.7900    11.9350    40.0620 C.3          1 NHW1000   0.0000
    63 CDM         -1.6280    10.4000    40.3300 C.3          1 NHW1000   0.0000
    64 CEM         -2.2030    10.0880    41.7380 C.3          1 NHW1000   0.0000
    65 H1           6.8330    20.8406    31.3811 H            1 NHW1000   0.0000
    66 H2           6.7856    22.4591    31.5929 H            1 NHW1000   0.0000
    67 H3           4.3869    22.3990    31.6417 H            1 NHW1000   0.0000
    68 H4           4.4131    20.7737    31.4850 H            1 NHW1000   0.0000
    69 H5           4.9143    20.9548    29.2162 H            1 NHW1000   0.0000
    70 H6           4.6096    22.1505    27.3831 H            1 NHW1000   0.0000
    71 H7           6.1409    22.7174    27.4015 H            1 NHW1000   0.0000
    72 H8           4.8332    24.1365    26.0742 H            1 NHW1000   0.0000
    73 H9           5.2815    24.9481    27.4184 H            1 NHW1000   0.0000
    74 H10          3.0360    25.3031    27.8447 H            1 NHW1000   0.0000
    75 HP1          7.2683    19.4167    34.7492 H            1 NHW1000   0.0000
    76 HP2          7.5008    19.3242    33.1355 H            1 NHW1000   0.0000
    77 H13          0.2039    23.7682    26.8354 H            1 NHW1000   0.0000
    78 H14         -0.1815    25.6700    27.8383 H            1 NHW1000   0.0000
    79 H15         -0.5636    24.7502    29.7014 H            1 NHW1000   0.0000
    80 H16         -1.0377    23.2951    30.2711 H            1 NHW1000   0.0000
    81 H17          1.1644    22.5680    30.6869 H            1 NHW1000   0.0000
    82 H18          2.3412    22.6716    29.5594 H            1 NHW1000   0.0000
    83 H19          1.7204    24.0304    30.2190 H            1 NHW1000   0.0000
    84 H20         -0.2254    21.1771    29.1261 H            1 NHW1000   0.0000
    85 H21         -0.6769    21.7427    27.6622 H            1 NHW1000   0.0000
    86 H22          0.8691    21.2835    27.9188 H            1 NHW1000   0.0000
    87 H1X         -3.1580    23.8063    35.0770 H            1 NHW1000   0.0000
    88 H2A         -0.0359    20.8456    36.4114 H            1 NHW1000   0.0000
    89 H2M1         4.7205    19.3549    35.4899 H            1 NHW1000   0.0000
    90 H2M2         4.9001    17.7320    35.4707 H            1 NHW1000   0.0000
    91 H2X         -3.0229    26.3395    33.6799 H            1 NHW1000   0.0000
    92 H28         -3.8046    26.4141    36.2124 H            1 NHW1000   0.0000
    93 H3M1         2.9759    17.5744    33.9366 H            1 NHW1000   0.0000
    94 H3M2         2.7669    19.1881    34.0741 H            1 NHW1000   0.0000
    95 H3X         -5.3947    26.4513    33.9200 H            1 NHW1000   0.0000
    96 H4M1         2.5199    18.9287    36.4426 H            1 NHW1000   0.0000
    97 H4M2         2.6566    17.3114    36.2626 H            1 NHW1000   0.0000
    98 H4X         -5.8460    23.9248    33.2999 H            1 NHW1000   0.0000
    99 H5M1         0.6136    17.2855    34.9150 H            1 NHW1000   0.0000
   100 H5M2         0.4790    18.9041    35.0841 H            1 NHW1000   0.0000
   101 H5X1        -4.5483    25.8921    31.5049 H            1 NHW1000   0.0000
   102 H5X2        -6.1645    25.7080    31.6484 H            1 NHW1000   0.0000
   103 H6A1         3.0693    23.4633    33.1572 H            1 NHW1000   0.0000
   104 H6A2         3.5596    22.1599    34.1871 H            1 NHW1000   0.0000
   105 H6M1        -0.9047    18.0827    36.7647 H            1 NHW1000   0.0000
   106 H6M2         0.4698    18.4574    37.5629 H            1 NHW1000   0.0000
   107 H7M1         1.1746    16.1526    37.5007 H            1 NHW1000   0.0000
   108 H7M2        -0.1291    15.7542    36.6016 H            1 NHW1000   0.0000
   109 H8A         -1.1648    25.6346    32.4530 H            1 NHW1000   0.0000
   110 H8M1        -1.5680    16.2691    38.4425 H            1 NHW1000   0.0000
   111 H8M2        -0.2747    16.6999    39.3416 H            1 NHW1000   0.0000
   112 H9M1        -0.5872    14.5183    40.0065 H            1 NHW1000   0.0000
   113 H9M2         0.5511    14.3481    38.8480 H            1 NHW1000   0.0000
   114 HAM1        -1.1228    13.8349    37.2858 H            1 NHW1000   0.0000
   115 HAM2        -2.2547    13.9912    38.4525 H            1 NHW1000   0.0000
   116 HBM1        -0.0471    12.1461    38.8780 H            1 NHW1000   0.0000
   117 HBM2        -1.3362    11.6355    38.0154 H            1 NHW1000   0.0000
   118 HCM1        -2.7587    12.1647    39.9675 H            1 NHW1000   0.0000
   119 HCM2        -1.3958    12.4571    40.8183 H            1 NHW1000   0.0000
   120 HDM1        -0.6600    10.1513    40.2973 H            1 NHW1000   0.0000
   121 HDM2        -2.1291     9.8810    39.6375 H            1 NHW1000   0.0000
   122 HEM1        -2.1084     9.1107    41.9276 H            1 NHW1000   0.0000
   123 HEM2        -1.7009    10.6113    42.4265 H            1 NHW1000   0.0000
   124 HEM3        -3.1700    10.3410    41.7667 H            1 NHW1000   0.0000
@<TRIPOS>BOND
     1    1    2       1
     2    1   12       1
     3    2    3       1
     4    3    4       1
     5    4    5      am
     6    5    6       2
     7    5    7       1
     8    7    8       1
     9    8    9       1
    10    9   10      am
    11   10   11       2
    12   10   13       1
    13   12   22       1
    14   13   14       1
    15   13   15       1
    16   15   16       1
    17   15   17       1
    18   15   18       1
    19   16   49       1
    20   19   25      ar
    21   19   47      ar
    22   20   21      ar
    23   21   26      ar
    24   21   32       1
    25   21   46       1
    26   22   23       2
    27   22   28       1
    28   24   29       1
    29   24   41       1
    30   24   57       1
    31   25   31      ar
    32   27   32       1
    33   27   38      ar
    34   27   43      ar
    35   27   49       1
    36   28   33       1
    37   29   30       1
    38   29   34       1
    39   31   37      ar
    40   33   39       1
    41   34   35       1
    42   34   40       1
    43   35   36       1
    44   36   52      ar
    45   36   55      ar
    46   36   58      ar
    47   37   42      ar
    48   37   57       1
    49   39   44       1
    50   40   41       1
    51   40   45       1
    52   42   47      ar
    53   42   51       1
    54   44   50       1
    55   45   46       1
    56   47   48       1
    57   50   53       1
    58   51   54       2
    59   53   56       1
    60   54   57       1
    61   56   59       1
    62   59   60       1
    63   60   61       1
    64   61   62       1
    65   62   63       1
    66   63   64       1
    67    2   65       1
    68    2   66       1
    69    3   67       1
    70    3   68       1
    71    4   69       1
    72    7   70       1
    73    7   71       1
    74    8   72       1
    75    8   73       1
    76    9   74       1
    77   12   75       1
    78   12   76       1
    79   13   77       1
    80   14   78       1
    81   16   79       1
    82   16   80       1
    83   17   81       1
    84   17   82       1
    85   17   83       1
    86   18   84       1
    87   18   85       1
    88   18   86       1
    89   64  124       1
    90   24   87       1
    91   25   88       1
    92   28   89       1
    93   28   90       1
    94   29   91       1
    95   30   92       1
    96   33   93       1
    97   33   94       1
    98   34   95       1
    99   64  123       1
   100   39   96       1
   101   39   97       1
   102   40   98       1
   103   44   99       1
   104   44  100       1
   105   45  101       1
   106   45  102       1
   107   48  103       1
   108   48  104       1
   109   50  105       1
   110   50  106       1
   111   64  122       1
   112   53  107       1
   113   53  108       1
   114   54  109       1
   115   63  121       1
   116   56  110       1
   117   56  111       1
   118   59  112       1
   119   59  113       1
   120   60  114       1
   121   60  115       1
   122   61  116       1
   123   61  117       1
   124   62  118       1
   125   62  119       1
   126   63  120       1
@<TRIPOS>SUBSTRUCTURE
     1 NHW1000     1 GROUP             4 B     NHW     0 **** NHW B1000
