2yne_NHW_3_ligand
  -OEChem-08111718373D

124126  0     1  0  0  0  0  0999 V2000
   -0.0359   20.8456   36.4114 H   0  0  0  0  0  0  0  0  0  0  0  0
   -1.1648   25.6346   32.4530 H   0  0  0  0  0  0  0  0  0  0  0  0
   -5.3947   26.4513   33.9200 H   0  0  0  0  0  0  0  0  0  0  0  0
   -3.0229   26.3395   33.6799 H   0  0  0  0  0  0  0  0  0  0  0  0
   -5.8460   23.9248   33.2999 H   0  0  0  0  0  0  0  0  0  0  0  0
   -3.1580   23.8063   35.0770 H   0  0  0  0  0  0  0  0  0  0  0  0
   -2.1084    9.1107   41.9276 H   0  0  0  0  0  0  0  0  0  0  0  0
   -1.7009   10.6113   42.4265 H   0  0  0  0  0  0  0  0  0  0  0  0
   -3.1700   10.3410   41.7667 H   0  0  0  0  0  0  0  0  0  0  0  0
    1.1644   22.5680   30.6869 H   0  0  0  0  0  0  0  0  0  0  0  0
    2.3412   22.6716   29.5594 H   0  0  0  0  0  0  0  0  0  0  0  0
    1.7204   24.0304   30.2190 H   0  0  0  0  0  0  0  0  0  0  0  0
   -0.2254   21.1771   29.1261 H   0  0  0  0  0  0  0  0  0  0  0  0
   -0.6769   21.7427   27.6622 H   0  0  0  0  0  0  0  0  0  0  0  0
    0.8691   21.2835   27.9188 H   0  0  0  0  0  0  0  0  0  0  0  0
    4.7205   19.3549   35.4899 H   0  0  0  0  0  0  0  0  0  0  0  0
    4.9001   17.7320   35.4707 H   0  0  0  0  0  0  0  0  0  0  0  0
    7.2683   19.4167   34.7492 H   0  0  0  0  0  0  0  0  0  0  0  0
    7.5008   19.3242   33.1355 H   0  0  0  0  0  0  0  0  0  0  0  0
    4.6096   22.1505   27.3831 H   0  0  0  0  0  0  0  0  0  0  0  0
    6.1409   22.7174   27.4015 H   0  0  0  0  0  0  0  0  0  0  0  0
   -4.5483   25.8921   31.5049 H   0  0  0  0  0  0  0  0  0  0  0  0
   -6.1645   25.7080   31.6484 H   0  0  0  0  0  0  0  0  0  0  0  0
   -0.6600   10.1513   40.2973 H   0  0  0  0  0  0  0  0  0  0  0  0
   -2.1291    9.8810   39.6375 H   0  0  0  0  0  0  0  0  0  0  0  0
    2.9759   17.5744   33.9366 H   0  0  0  0  0  0  0  0  0  0  0  0
    2.7669   19.1881   34.0741 H   0  0  0  0  0  0  0  0  0  0  0  0
   -2.7587   12.1647   39.9675 H   0  0  0  0  0  0  0  0  0  0  0  0
   -1.3958   12.4571   40.8183 H   0  0  0  0  0  0  0  0  0  0  0  0
    2.5199   18.9287   36.4426 H   0  0  0  0  0  0  0  0  0  0  0  0
    2.6566   17.3114   36.2626 H   0  0  0  0  0  0  0  0  0  0  0  0
   -0.0471   12.1461   38.8780 H   0  0  0  0  0  0  0  0  0  0  0  0
   -1.3362   11.6355   38.0154 H   0  0  0  0  0  0  0  0  0  0  0  0
    0.6136   17.2855   34.9150 H   0  0  0  0  0  0  0  0  0  0  0  0
    0.4790   18.9041   35.0841 H   0  0  0  0  0  0  0  0  0  0  0  0
   -1.1228   13.8349   37.2858 H   0  0  0  0  0  0  0  0  0  0  0  0
   -2.2547   13.9912   38.4525 H   0  0  0  0  0  0  0  0  0  0  0  0
   -0.9047   18.0827   36.7647 H   0  0  0  0  0  0  0  0  0  0  0  0
    0.4698   18.4574   37.5629 H   0  0  0  0  0  0  0  0  0  0  0  0
   -0.5872   14.5183   40.0065 H   0  0  0  0  0  0  0  0  0  0  0  0
    0.5511   14.3481   38.8480 H   0  0  0  0  0  0  0  0  0  0  0  0
    1.1746   16.1526   37.5007 H   0  0  0  0  0  0  0  0  0  0  0  0
   -0.1291   15.7542   36.6016 H   0  0  0  0  0  0  0  0  0  0  0  0
   -1.5680   16.2691   38.4425 H   0  0  0  0  0  0  0  0  0  0  0  0
   -0.2747   16.6999   39.3416 H   0  0  0  0  0  0  0  0  0  0  0  0
    4.8332   24.1365   26.0742 H   0  0  0  0  0  0  0  0  0  0  0  0
    5.2815   24.9481   27.4184 H   0  0  0  0  0  0  0  0  0  0  0  0
    4.3869   22.3990   31.6417 H   0  0  0  0  0  0  0  0  0  0  0  0
    4.4131   20.7737   31.4850 H   0  0  0  0  0  0  0  0  0  0  0  0
   -0.5636   24.7502   29.7014 H   0  0  0  0  0  0  0  0  0  0  0  0
   -1.0377   23.2951   30.2711 H   0  0  0  0  0  0  0  0  0  0  0  0
    6.8330   20.8406   31.3811 H   0  0  0  0  0  0  0  0  0  0  0  0
    6.7856   22.4591   31.5929 H   0  0  0  0  0  0  0  0  0  0  0  0
    0.2039   23.7682   26.8354 H   0  0  0  0  0  0  0  0  0  0  0  0
    3.0693   23.4633   33.1572 H   0  0  0  0  0  0  0  0  0  0  0  0
    3.5596   22.1599   34.1871 H   0  0  0  0  0  0  0  0  0  0  0  0
    4.9143   20.9548   29.2162 H   0  0  0  0  0  0  0  0  0  0  0  0
    3.0360   25.3031   27.8447 H   0  0  0  0  0  0  0  0  0  0  0  0
   -3.8046   26.4141   36.2124 H   0  0  0  0  0  0  0  0  0  0  0  0
   -0.1815   25.6700   27.8383 H   0  0  0  0  0  0  0  0  0  0  0  0
    0.0960   21.5540   35.7180 C   0  0  0  0  0  0  0  0  0  0  0  0
   -0.8030   24.8870   33.0100 C   0  0  0  0  0  0  0  0  0  0  0  0
    0.5350   23.4550   33.9360 C   0  0  0  0  0  0  0  0  0  0  0  0
   -0.7380   23.2220   34.4480 C   0  0  0  0  0  0  0  0  0  0  0  0
    1.5680   22.6420   34.2890 C   0  0  0  0  0  0  0  0  0  0  0  0
    5.6040   18.6520   33.7270 C   0  0  0  0  0  0  0  0  0  0  0  0
    5.1580   22.9610   29.2390 C   0  0  0  0  0  0  0  0  0  0  0  0
    2.2940   23.5430   27.1090 C   0  0  0  0  0  0  0  0  0  0  0  0
   -4.9740   25.5910   34.2080 C   0  0  1  0  0  0  0  0  0  0  0  0
   -3.4160   25.7530   34.3880 C   0  0  2  0  0  0  0  0  0  0  0  0
   -5.0760   24.5340   33.1100 C   0  0  1  0  0  0  0  0  0  0  0  0
   -2.9640   24.3030   34.2310 C   0  0  2  0  0  0  0  0  0  0  0  0
   -2.2030   10.0880   41.7380 C   0  0  0  0  0  0  0  0  0  0  0  0
    1.5110   23.1010   29.9150 C   0  0  0  0  0  0  0  0  0  0  0  0
    0.0650   21.7110   28.3320 C   0  0  0  0  0  0  0  0  0  0  0  0
    4.6300   18.5300   34.9320 C   0  0  2  0  0  0  0  0  0  0  0  0
    6.8440   19.5530   33.8540 C   0  0  1  0  0  0  0  0  0  0  0  0
    5.2010   22.8950   27.6930 C   0  0  2  0  0  0  0  0  0  0  0  0
   -5.2830   25.2370   31.6810 C   0  0  2  0  0  0  0  0  0  0  0  0
   -1.6280   10.4000   40.3300 C   0  0  1  0  0  0  0  0  0  0  0  0
    3.0960   18.3650   34.5370 C   0  0  2  0  0  0  0  0  0  0  0  0
   -1.7900   11.9350   40.0620 C   0  0  1  0  0  0  0  0  0  0  0  0
    2.3480   18.1580   35.8290 C   0  0  2  0  0  0  0  0  0  0  0  0
   -1.0290   12.2640   38.7300 C   0  0  1  0  0  0  0  0  0  0  0  0
    0.7940   18.0610   35.5200 C   0  0  2  0  0  0  0  0  0  0  0  0
   -1.3040   13.7440   38.2650 C   0  0  1  0  0  0  0  0  0  0  0  0
    0.0640   17.8590   36.8720 C   0  0  2  0  0  0  0  0  0  0  0  0
   -0.3950   14.6160   39.0300 C   0  0  1  0  0  0  0  0  0  0  0  0
    0.2100   16.3520   37.3280 C   0  0  2  0  0  0  0  0  0  0  0  0
   -0.5980   16.0960   38.6130 C   0  0  1  0  0  0  0  0  0  0  0  0
    4.7280   24.1930   27.0670 C   0  0  2  0  0  0  0  0  0  0  0  0
    4.8860   21.6240   31.2540 C   0  0  2  0  0  0  0  0  0  0  0  0
   -0.7820   23.8070   29.4510 C   0  0  2  0  0  0  0  0  0  0  0  0
    6.3320   21.5940   31.8070 C   0  0  1  0  0  0  0  0  0  0  0  0
    0.8490   23.9310   27.5820 C   0  0  1  0  0  0  0  0  0  0  0  0
    0.4190   23.1530   28.7800 C   0  0  1  0  0  0  0  0  0  0  0  0
   -0.9480   22.2780   35.3850 N   0  0  0  0  0  0  0  0  0  0  0  0
    1.3200   21.6910   35.2020 N   0  0  0  0  0  0  0  0  0  0  0  0
    0.4610   24.4660   32.9930 N   0  0  0  0  0  0  0  0  0  0  0  0
   -1.5330   24.1500   33.8980 N   0  0  0  0  0  0  0  0  0  0  0  0
    2.8450   22.7660   33.8380 N   0  0  0  0  0  0  0  0  0  0  0  0
    4.9820   21.7660   29.7970 N   0  0  0  0  0  0  0  0  0  0  0  0
    3.2840   24.4440   27.3970 N   0  0  0  0  0  0  0  0  0  0  0  0
   -5.3770   27.2610   36.5950 O   0  5  0  0  0  0  0  0  0  0  0  0
   -7.5570   26.8600   35.5760 O   0  5  0  0  0  0  0  0  0  0  0  0
   -5.2380   23.2800   28.3960 O   0  5  0  0  0  0  0  0  0  0  0  0
   -1.6690   26.2480   28.4280 O   0  5  0  0  0  0  0  0  0  0  0  0
    5.3900   18.1380   32.6290 O   0  0  0  0  0  0  0  0  0  0  0  0
    5.2970   24.0340   29.8580 O   0  0  0  0  0  0  0  0  0  0  0  0
    2.5140   22.5260   26.4390 O   0  0  0  0  0  0  0  0  0  0  0  0
   -6.8310   25.4670   37.5770 O   0  0  0  0  0  0  0  0  0  0  0  0
   -6.2450   25.5830   28.9080 O   0  0  0  0  0  0  0  0  0  0  0  0
   -3.1260   25.0210   26.7220 O   0  0  0  0  0  0  0  0  0  0  0  0
   -3.8230   23.7730   33.1510 O   0  0  0  0  0  0  0  0  0  0  0  0
   -3.0050   26.1480   35.6740 O   0  0  0  0  0  0  0  0  0  0  0  0
    0.7440   25.3350   28.0150 O   0  0  0  0  0  0  0  0  0  0  0  0
   -5.6740   25.0220   35.4030 O   0  0  0  0  0  0  0  0  0  0  0  0
   -5.2480   24.1880   30.7300 O   0  0  0  0  0  0  0  0  0  0  0  0
   -1.9210   23.7850   28.4470 O   0  0  0  0  0  0  0  0  0  0  0  0
   -3.6900   25.2710   29.1470 O   0  0  0  0  0  0  0  0  0  0  0  0
   -6.4720   26.1450   36.2910 P   0  0  0  0  0  0  0  0  0  0  0  0
   -5.1770   24.5520   29.1870 P   0  0  1  0  0  0  0  0  0  0  0  0
   -2.6010   25.1390   28.1110 P   0  0  1  0  0  0  0  0  0  0  0  0
    6.3090   21.3490   33.6740 S   0  0  0  0  0  0  0  0  0  0  0  0
  1 61  1  0  0  0  0
  2 62  1  0  0  0  0
  3 69  1  0  0  0  0
  4 70  1  0  0  0  0
  5 71  1  0  0  0  0
  6 72  1  0  0  0  0
  7 73  1  0  0  0  0
  8 73  1  0  0  0  0
  9 73  1  0  0  0  0
 10 74  1  0  0  0  0
 11 74  1  0  0  0  0
 12 74  1  0  0  0  0
 13 75  1  0  0  0  0
 14 75  1  0  0  0  0
 15 75  1  0  0  0  0
 16 76  1  0  0  0  0
 17 76  1  0  0  0  0
 18 77  1  0  0  0  0
 19 77  1  0  0  0  0
 20 78  1  0  0  0  0
 21 78  1  0  0  0  0
 22 79  1  0  0  0  0
 23 79  1  0  0  0  0
 24 80  1  0  0  0  0
 25 80  1  0  0  0  0
 26 81  1  0  0  0  0
 27 81  1  0  0  0  0
 28 82  1  0  0  0  0
 29 82  1  0  0  0  0
 30 83  1  0  0  0  0
 31 83  1  0  0  0  0
 32 84  1  0  0  0  0
 33 84  1  0  0  0  0
 34 85  1  0  0  0  0
 35 85  1  0  0  0  0
 36 86  1  0  0  0  0
 37 86  1  0  0  0  0
 38 87  1  0  0  0  0
 39 87  1  0  0  0  0
 40 88  1  0  0  0  0
 41 88  1  0  0  0  0
 42 89  1  0  0  0  0
 43 89  1  0  0  0  0
 44 90  1  0  0  0  0
 45 90  1  0  0  0  0
 46 91  1  0  0  0  0
 47 91  1  0  0  0  0
 48 92  1  0  0  0  0
 49 92  1  0  0  0  0
 50 93  1  0  0  0  0
 51 93  1  0  0  0  0
 52 94  1  0  0  0  0
 53 94  1  0  0  0  0
 54 95  1  0  0  0  0
 55101  1  0  0  0  0
 56101  1  0  0  0  0
 57102  1  0  0  0  0
 58103  1  0  0  0  0
 59115  1  0  0  0  0
 60116  1  0  0  0  0
 61 97  1  0  0  0  0
 61 98  2  0  0  0  0
 62 99  2  0  0  0  0
 62100  1  0  0  0  0
 63 64  1  0  0  0  0
 63 65  2  0  0  0  0
 63 99  1  0  0  0  0
 64 97  2  0  0  0  0
 64100  1  0  0  0  0
 65 98  1  0  0  0  0
 65101  1  0  0  0  0
 66 76  1  0  0  0  0
 66 77  1  0  0  0  0
 66108  2  0  0  0  0
 67 78  1  0  0  0  0
 67102  1  0  0  0  0
 67109  2  0  0  0  0
 68 95  1  0  0  0  0
 68103  1  0  0  0  0
 68110  2  0  0  0  0
 69 70  1  0  0  0  0
 69 71  1  0  0  0  0
 69117  1  0  0  0  0
 70 72  1  0  0  0  0
 70115  1  0  0  0  0
 71 79  1  0  0  0  0
 71114  1  0  0  0  0
 72100  1  0  0  0  0
 72114  1  0  0  0  0
 73 80  1  0  0  0  0
 74 96  1  0  0  0  0
 75 96  1  0  0  0  0
 76 81  1  0  0  0  0
 77124  1  0  0  0  0
 78 91  1  0  0  0  0
 79118  1  0  0  0  0
 80 82  1  0  0  0  0
 81 83  1  0  0  0  0
 82 84  1  0  0  0  0
 83 85  1  0  0  0  0
 84 86  1  0  0  0  0
 85 87  1  0  0  0  0
 86 88  1  0  0  0  0
 87 89  1  0  0  0  0
 88 90  1  0  0  0  0
 89 90  1  0  0  0  0
 91103  1  0  0  0  0
 92 94  1  0  0  0  0
 92102  1  0  0  0  0
 93 96  1  0  0  0  0
 93119  1  0  0  0  0
 94124  1  0  0  0  0
 95 96  1  0  0  0  0
 95116  1  0  0  0  0
104121  1  0  0  0  0
105121  1  0  0  0  0
106122  1  0  0  0  0
107123  1  0  0  0  0
111121  2  0  0  0  0
112122  2  0  0  0  0
113123  2  0  0  0  0
117121  1  0  0  0  0
118122  1  0  0  0  0
119123  1  0  0  0  0
120122  1  0  0  0  0
120123  1  0  0  0  0
M  CHG  4 106  -1 107  -1 104  -1 105  -1
M  END
> <scpdb_id>
2yne_3

$$$$
