#    Name: 12864
#    Modification time : Tue Aug  8 19:53:51 2017

@<TRIPOS>MOLECULE
12864
   77     0    15     0     0
SMALL
NO_CHARGES


@<TRIPOS>ATOM
      1 N         -31.8540    9.0860   -1.2990 N.am      1 SEL1        0.0000 
      2 N         -29.6270    4.4900   -0.5040 N.am      1 SEL1        0.0000 
      3 N         -30.5510    1.5440   -1.5390 N.am      1 SEL1        0.0000 
      4 N         -28.5590    0.9420   -3.0130 N.am      1 SEL1        0.0000 
      5 N         -26.8560    5.7500   -6.7980 N.am      1 SEL1        0.0000 
      6 N         -27.2820    8.2020   -6.9320 N.am      1 SEL1        0.0000 
      7 O         -35.8550    9.2960   -2.2900 O.2       2 ALL2        0.0000 
      8 O         -34.8150   10.7920   -8.7880 O.2       2 ALL2        0.0000 
      9 NZ        -30.7230    1.6810   -3.9370 N.4       3 LYL3        0.0000 
     10 NZ        -30.5510    1.5440   -1.5390 N.4       3 LYL3        0.0000 
     11 NZ        -28.5590    0.9420   -3.0130 N.4       3 LYL3        0.0000 
     12 NZ        -27.2820    8.2020   -6.9320 N.4       3 LYL3        0.0000 
     13 CA        -29.3000    5.5770   -3.3260 C.3       4 GLL5        0.0000 
     14 CA        -32.6960    9.9180   -6.1170 C.3       4 GLL5        0.0000 
     15 CA        -34.1490    8.6570   -7.7190 C.3       4 GLL5        0.0000 
     16 CA        -33.9880   12.2520  -10.5580 C.3       4 GLL5        0.0000 
     17 CA        -31.3120   15.0580  -13.0710 C.3       4 GLL5        0.0000 
     18 CA        -30.4270   16.5890  -13.5000 C.3       4 GLL5        0.0000 
     19 CA        -30.5580    4.7850   -1.5320 C.3       4 GLL5        0.0000 
     20 Zn        -27.2820    8.2020   -6.9320 Zn        5 ZIL7        0.0000 
     21 Zn        -29.0770    8.0280   -9.3830 Zn        5 ZIL7        0.0000 
     22 N         -29.2450    9.8670    0.2280 N.am      6 SEP1        0.0000 
     23 N         -28.6060    6.7200    1.5610 N.am      6 SEP1        0.0000 
     24 N         -33.4900    2.1140   -0.3420 N.am      6 SEP1        0.0000 
     25 N         -32.2750    0.3040    0.2060 N.am      6 SEP1        0.0000 
     26 N         -26.4790    1.7090   -4.6190 N.am      6 SEP1        0.0000 
     27 N         -24.1170    5.4020   -5.7070 N.am      6 SEP1        0.0000 
     28 N         -27.6960    9.5130   -4.2940 N.am      6 SEP1        0.0000 
     29 N         -24.5900    8.4470   -6.2820 N.am      6 SEP1        0.0000 
     30 O         -37.7490    7.0870   -2.2620 O.2       7 ALP2        0.0000 
     31 O         -37.5830   11.9430   -0.8110 O.2       7 ALP2        0.0000 
     32 O         -36.8250   12.4500   -6.9630 O.2       7 ALP2        0.0000 
     33 NZ        -30.7040   -1.8830   -2.3690 N.4       8 LYP3        0.0000 
     34 NZ        -33.3320    1.0520    0.4000 N.4       8 LYP3        0.0000 
     35 NZ        -27.6960    9.5130   -4.2940 N.4       8 LYP3        0.0000 
     36 CA        -26.0890    5.0960   -0.4460 C.3       9 GLP5        0.0000 
     37 CA        -30.6400   11.8160   -4.0570 C.3       9 GLP5        0.0000 
     38 CA        -37.3300    9.4940  -10.4150 C.3       9 GLP5        0.0000 
     39 CA        -32.1880   15.0720  -17.2970 C.3       9 GLP5        0.0000 
     40 CA        -28.7180   12.7160  -13.9820 C.3       9 GLP5        0.0000 
     41 CA        -32.1890   17.6130  -17.1590 C.3       9 GLP5        0.0000 
     42 CA        -28.0680   18.4160  -15.8920 C.3       9 GLP5        0.0000 
     43 CA        -28.0590   13.7730  -14.6440 C.3       9 GLP5        0.0000 
     44 CA        -29.8580   18.8600  -10.2660 C.3       9 GLP5        0.0000 
     45 CA        -31.3220    4.2980    2.2600 C.3       9 GLP5        0.0000 
     46 CA        -34.4150   16.9750  -13.9600 C.3       9 GLP5        0.0000 
     47 Zn        -27.4300    9.4500   -8.9530 Zn       10 ZIP7        0.0000 
     48 N         -30.5495    9.4765   -0.5355 N.am     11 SEC1        0.0000 
     49 N         -29.1165    5.6050    0.5285 N.am     11 SEC1        0.0000 
     50 N         -32.0205    1.8290   -0.9405 N.am     11 SEC1        0.0000 
     51 N         -31.4130    0.9240   -0.6665 N.am     11 SEC1        0.0000 
     52 N         -27.5190    1.3255   -3.8160 N.am     11 SEC1        0.0000 
     53 N         -25.4865    5.5760   -6.2525 N.am     11 SEC1        0.0000 
     54 N         -27.4890    8.8575   -5.6130 N.am     11 SEC1        0.0000 
     55 N         -25.9360    8.3245   -6.6070 N.am     11 SEC1        0.0000 
     56 O         -36.8020    8.1915   -2.2760 O.2      12 ALC2        0.0000 
     57 O         -36.7190   10.6195   -1.5505 O.2      12 ALC2        0.0000 
     58 O         -35.8200   11.6210   -7.8755 O.2      12 ALC2        0.0000 
     59 NZ        -30.7135   -0.1010   -3.1530 N.4      13 LYC3        0.0000 
     60 NZ        -31.9415    1.2980   -0.5695 N.4      13 LYC3        0.0000 
     61 NZ        -30.6275   -0.1695   -1.9540 N.4      13 LYC3        0.0000 
     62 NZ        -29.6315   -0.4705   -2.6910 N.4      13 LYC3        0.0000 
     63 NZ        -27.4890    8.8575   -5.6130 N.4      13 LYC3        0.0000 
     64 CA        -27.6945    5.3365   -1.8860 C.3      14 GLC5        0.0000 
     65 CA        -31.6680   10.8670   -5.0870 C.3      14 GLC5        0.0000 
     66 CA        -35.7395    9.0755   -9.0670 C.3      14 GLC5        0.0000 
     67 CA        -35.6590   10.8730  -10.4865 C.3      14 GLC5        0.0000 
     68 CA        -31.7500   15.0650  -15.1840 C.3      14 GLC5        0.0000 
     69 CA        -30.0150   13.8870  -13.5265 C.3      14 GLC5        0.0000 
     70 CA        -31.3080   17.1010  -15.3295 C.3      14 GLC5        0.0000 
     71 CA        -29.2475   17.5025  -14.6960 C.3      14 GLC5        0.0000 
     72 CA        -29.2430   15.1810  -14.0720 C.3      14 GLC5        0.0000 
     73 CA        -30.1425   17.7245  -11.8830 C.3      14 GLC5        0.0000 
     74 CA        -30.9827    4.9187    0.3312 C.3      14 GLC5        0.0000 
     75 CA        -32.6423   16.3993  -13.6227 C.3      14 GLC5        0.0000 
     76 Zn        -27.3560    8.8260   -7.9425 Zn       15 ZIC7        0.0000 
     77 Zn        -28.2535    8.7390   -9.1680 Zn       15 ZIC7        0.0000 
@<TRIPOS>BOND
@<TRIPOS>SUBSTRUCTURE
     1 SEL1        1 GROUP        1 Z    SEL  0     ROOT SEL Z 0
     2 ALL2        7 GROUP        1 Z    ALL  0     **** ALL Z 1
     3 LYL3        9 GROUP        1 Z    LYL  0     **** LYL Z 2
     4 GLL5       13 GROUP        1 Z    GLL  0     **** GLL Z 4
     5 ZIL7       20 GROUP        1 Z    ZIL  0     **** ZIL Z 5
     6 SEP1       22 GROUP        1 Z    SEP  0     **** SEP Z 7
     7 ALP2       30 GROUP        1 Z    ALP  0     **** ALP Z 8
     8 LYP3       33 GROUP        1 Z    LYP  0     **** LYP Z 9
     9 GLP5       36 GROUP        1 Z    GLP  0     **** GLP Z 11
    10 ZIP7       47 GROUP        1 Z    ZIP  0     **** ZIP Z 12
    11 SEC1       48 GROUP        1 Z    SEC  0     **** SEC Z 14
    12 ALC2       56 GROUP        1 Z    ALC  0     **** ALC Z 15
    13 LYC3       59 GROUP        1 Z    LYC  0     **** LYC Z 16
    14 GLC5       64 GROUP        1 Z    GLC  0     **** GLC Z 18
    15 ZIC7       76 GROUP        1 Z    ZIC  0     **** ZIC Z 19
@<TRIPOS>SET

