@<TRIPOS>MOLECULE
2c43_COA_1_ligand
   80    82     1     0     0
SMALL
NO_CHARGES


@<TRIPOS>ATOM
     1 N1A        -33.8480    10.3220    -1.5210 N.ar         1 COA1316   0.0000
     2 C2A        -32.5200    10.2830    -1.2020 C.ar         1 COA1316   0.0000
     3 N3A        -31.8540     9.0860    -1.2990 N.ar         1 COA1316   0.0000
     4 C4A        -32.5360     7.9960    -1.6690 C.ar         1 COA1316   0.0000
     5 C5A        -33.8700     8.0470    -2.0460 C.ar         1 COA1316   0.0000
     6 C6A        -34.5470     9.2300    -1.9580 C.ar         1 COA1316   0.0000
     7 N6A        -35.8550     9.2960    -2.2900 N.pl3        1 COA1316   0.0000
     8 N7A        -34.2620     6.8230    -2.4180 N.2          1 COA1316   0.0000
     9 C8A        -33.2020     5.9830    -2.3260 C.2          1 COA1316   0.0000
    10 N9A        -32.1140     6.7170    -1.8520 N.pl3        1 COA1316   0.0000
    11 C1B        -30.7290     6.2940    -1.6630 C.3          1 COA1316   0.0000
    12 C2B        -30.5580     4.7850    -1.5320 C.3          1 COA1316   0.0000
    13 O2B        -29.6270     4.4900    -0.5040 O.3          1 COA1316   0.0000
    14 C3B        -30.0370     4.3660    -2.8770 C.3          1 COA1316   0.0000
    15 O3B        -29.1620     3.2840    -2.7540 O.3          1 COA1316   0.0000
    16 P3B        -29.7720     1.7730    -2.7920 P.3          1 COA1316   0.0000
    17 O7A        -30.7230     1.6810    -3.9370 O.co2        1 COA1316   0.0000
    18 O8A        -30.5510     1.5440    -1.5390 O.co2        1 COA1316  -1.0000
    19 O9A        -28.5590     0.9420    -3.0130 O.co2        1 COA1316  -1.0000
    20 C4B        -29.3000     5.5770    -3.3260 C.3          1 COA1316   0.0000
    21 O4B        -30.0220     6.6300    -2.8270 O.3          1 COA1316   0.0000
    22 C5B        -29.1770     5.6770    -4.8170 C.3          1 COA1316   0.0000
    23 O5B        -28.4390     6.8380    -5.1580 O.3          1 COA1316   0.0000
    24 P1A        -27.8350     6.8260    -6.6480 P.3          1 COA1316   0.0000
    25 O1A        -26.8560     5.7500    -6.7980 O.co2        1 COA1316   0.0000
    26 O2A        -27.2820     8.2020    -6.9320 O.co2        1 COA1316  -1.0000
    27 O3A        -29.1520     6.3640    -7.4310 O.3          1 COA1316   0.0000
    28 P2A        -29.8580     6.8840    -8.7620 P.3          1 COA1316   0.0000
    29 O4A        -29.0770     8.0280    -9.3830 O.co2        1 COA1316   0.0000
    30 O5A        -30.0100     5.7610    -9.6620 O.co2        1 COA1316  -1.0000
    31 O6A        -31.3060     7.2800    -8.2430 O.3          1 COA1316   0.0000
    32 CBP        -32.8090     8.6440    -6.9550 C.3          1 COA1316   0.0000
    33 CCP        -31.5330     8.5770    -7.7740 C.3          1 COA1316   0.0000
    34 CDP        -32.8020     7.3980    -6.0830 C.3          1 COA1316   0.0000
    35 CEP        -32.6960     9.9180    -6.1170 C.3          1 COA1316   0.0000
    36 CAP        -34.1490     8.6570    -7.7190 C.3          1 COA1316   0.0000
    37 OAP        -35.1350     9.0200    -6.7530 O.3          1 COA1316   0.0000
    38 C9P        -34.1770     9.6200    -8.8840 C.2          1 COA1316   0.0000
    39 O9P        -33.4860     9.3100   -10.0520 O.2          1 COA1316   0.0000
    40 N8P        -34.8150    10.7920    -8.7880 N.am         1 COA1316   0.0000
    41 C7P        -34.1280    12.0560    -9.0620 C.3          1 COA1316   0.0000
    42 C6P        -33.9880    12.2520   -10.5580 C.3          1 COA1316   0.0000
    43 C5P        -33.2700    13.5300   -10.9150 C.2          1 COA1316   0.0000
    44 O5P        -33.8930    14.5710   -10.8010 O.2          1 COA1316   0.0000
    45 N4P        -32.0240    13.4620   -11.3920 N.am         1 COA1316   0.0000
    46 C3P        -31.1930    14.6420   -11.6250 C.3          1 COA1316   0.0000
    47 C2P        -31.3120    15.0580   -13.0710 C.3          1 COA1316   0.0000
    48 S1P        -30.4270    16.5890   -13.5000 S.3          1 COA1316   0.0000
    49 H2A        -32.0426    11.1096    -0.9039 H            1 COA1316   0.0000
    50 H6A1       -36.3327     8.4761    -2.6056 H            1 COA1316   0.0000
    51 H6A2       -36.3454    10.1647    -2.2201 H            1 COA1316   0.0000
    52 H8A        -33.2001     5.0100    -2.5569 H            1 COA1316   0.0000
    53 H1B        -30.3311     6.7571    -0.8710 H            1 COA1316   0.0000
    54 H2B        -31.4375     4.3474    -1.3448 H            1 COA1316   0.0000
    55 H7         -28.7060     4.4456    -0.8910 H            1 COA1316   0.0000
    56 H3B        -30.7879     4.1509    -3.5015 H            1 COA1316   0.0000
    57 H4B        -28.3871     5.5789    -2.9179 H            1 COA1316   0.0000
    58 H5B1       -30.0892     5.7317    -5.2230 H            1 COA1316   0.0000
    59 H5B2       -28.7045     4.8680    -5.1667 H            1 COA1316   0.0000
    60 HCP1       -31.6122     9.1976    -8.5541 H            1 COA1316   0.0000
    61 HCP2       -30.7622     8.8574    -7.2019 H            1 COA1316   0.0000
    62 HDP1       -33.6248     7.3842    -5.5148 H            1 COA1316   0.0000
    63 HDP2       -32.7846     6.5845    -6.6642 H            1 COA1316   0.0000
    64 HDP3       -31.9920     7.4061    -5.4966 H            1 COA1316   0.0000
    65 HEP1       -33.5143    10.0183    -5.5510 H            1 COA1316   0.0000
    66 HEP2       -31.8891     9.8598    -5.5291 H            1 COA1316   0.0000
    67 HEP3       -32.6107    10.7090    -6.7228 H            1 COA1316   0.0000
    68 HAP        -34.3433     7.7347    -8.0531 H            1 COA1316   0.0000
    69 H21        -36.0347     9.0466    -7.1888 H            1 COA1316   0.0000
    70 H8P        -35.7795    10.8052    -8.5241 H            1 COA1316   0.0000
    71 H7P1       -33.2200    12.0376    -8.6434 H            1 COA1316   0.0000
    72 H7P2       -34.6575    12.8117    -8.6765 H            1 COA1316   0.0000
    73 H6P1       -34.9015    12.2744   -10.9643 H            1 COA1316   0.0000
    74 H6P2       -33.4745    11.4810   -10.9347 H            1 COA1316   0.0000
    75 H4P        -31.6417    12.5615   -11.5995 H            1 COA1316   0.0000
    76 H3P1       -30.2392    14.4252   -11.4171 H            1 COA1316   0.0000
    77 H3P2       -31.5010    15.3891   -11.0360 H            1 COA1316   0.0000
    78 H2P1       -32.2814    15.1907   -13.2778 H            1 COA1316   0.0000
    79 H2P2       -30.9483    14.3191   -13.6382 H            1 COA1316   0.0000
    80 H1P        -30.5586    16.7892   -14.4709 H            1 COA1316   0.0000
@<TRIPOS>BOND
     1    1    2      ar
     2    1    6      ar
     3    2    3      ar
     4    3    4      ar
     5    4    5      ar
     6    4   10       1
     7    5    6      ar
     8    5    8       1
     9    6    7       1
    10    8    9       2
    11    9   10       1
    12   10   11       1
    13   11   12       1
    14   11   21       1
    15   12   13       1
    16   12   14       1
    17   14   15       1
    18   14   20       1
    19   15   16       1
    20   16   17      ar
    21   16   18      ar
    22   16   19      ar
    23   20   21       1
    24   20   22       1
    25   22   23       1
    26   23   24       1
    27   24   25      ar
    28   24   26      ar
    29   24   27       1
    30   27   28       1
    31   28   29      ar
    32   28   30      ar
    33   28   31       1
    34   31   33       1
    35   32   33       1
    36   32   34       1
    37   32   35       1
    38   32   36       1
    39   36   37       1
    40   36   38       1
    41   38   39       2
    42   38   40      am
    43   40   41       1
    44   41   42       1
    45   42   43       1
    46   43   44       2
    47   43   45      am
    48   45   46       1
    49   46   47       1
    50   47   48       1
    51    2   49       1
    52    7   50       1
    53    7   51       1
    54    9   52       1
    55   11   53       1
    56   12   54       1
    57   13   55       1
    58   14   56       1
    59   48   80       1
    60   47   79       1
    61   20   57       1
    62   22   58       1
    63   22   59       1
    64   47   78       1
    65   46   77       1
    66   33   60       1
    67   33   61       1
    68   34   62       1
    69   34   63       1
    70   34   64       1
    71   35   65       1
    72   35   66       1
    73   35   67       1
    74   36   68       1
    75   37   69       1
    76   40   70       1
    77   41   71       1
    78   41   72       1
    79   42   73       1
    80   42   74       1
    81   45   75       1
    82   46   76       1
@<TRIPOS>SUBSTRUCTURE
     1 COA1316     1 GROUP             4 A     COA     0 **** COA A1316
