2c43_COA_1_ligand
  -OEChem-08111718373D

 80 82  0     1  0  0  0  0  0999 V2000
  -32.0426   11.1096   -0.9039 H   0  0  0  0  0  0  0  0  0  0  0  0
  -33.2001    5.0100   -2.5569 H   0  0  0  0  0  0  0  0  0  0  0  0
  -30.7879    4.1509   -3.5015 H   0  0  0  0  0  0  0  0  0  0  0  0
  -31.4375    4.3474   -1.3448 H   0  0  0  0  0  0  0  0  0  0  0  0
  -28.3871    5.5789   -2.9179 H   0  0  0  0  0  0  0  0  0  0  0  0
  -30.3311    6.7571   -0.8710 H   0  0  0  0  0  0  0  0  0  0  0  0
  -33.6248    7.3842   -5.5148 H   0  0  0  0  0  0  0  0  0  0  0  0
  -32.7846    6.5845   -6.6642 H   0  0  0  0  0  0  0  0  0  0  0  0
  -31.9920    7.4061   -5.4966 H   0  0  0  0  0  0  0  0  0  0  0  0
  -33.5143   10.0183   -5.5510 H   0  0  0  0  0  0  0  0  0  0  0  0
  -31.8891    9.8598   -5.5291 H   0  0  0  0  0  0  0  0  0  0  0  0
  -32.6107   10.7090   -6.7228 H   0  0  0  0  0  0  0  0  0  0  0  0
  -34.9015   12.2744  -10.9643 H   0  0  0  0  0  0  0  0  0  0  0  0
  -33.4745   11.4810  -10.9347 H   0  0  0  0  0  0  0  0  0  0  0  0
  -30.0892    5.7317   -5.2230 H   0  0  0  0  0  0  0  0  0  0  0  0
  -28.7045    4.8680   -5.1667 H   0  0  0  0  0  0  0  0  0  0  0  0
  -33.2200   12.0376   -8.6434 H   0  0  0  0  0  0  0  0  0  0  0  0
  -34.6575   12.8117   -8.6765 H   0  0  0  0  0  0  0  0  0  0  0  0
  -30.2392   14.4252  -11.4171 H   0  0  0  0  0  0  0  0  0  0  0  0
  -31.5010   15.3891  -11.0360 H   0  0  0  0  0  0  0  0  0  0  0  0
  -31.6122    9.1976   -8.5541 H   0  0  0  0  0  0  0  0  0  0  0  0
  -30.7622    8.8574   -7.2019 H   0  0  0  0  0  0  0  0  0  0  0  0
  -32.2814   15.1907  -13.2778 H   0  0  0  0  0  0  0  0  0  0  0  0
  -30.9483   14.3191  -13.6382 H   0  0  0  0  0  0  0  0  0  0  0  0
  -34.3433    7.7347   -8.0531 H   0  0  0  0  0  0  0  0  0  0  0  0
  -36.3327    8.4761   -2.6056 H   0  0  0  0  0  0  0  0  0  0  0  0
  -36.3454   10.1647   -2.2201 H   0  0  0  0  0  0  0  0  0  0  0  0
  -31.6417   12.5615  -11.5995 H   0  0  0  0  0  0  0  0  0  0  0  0
  -35.7795   10.8052   -8.5241 H   0  0  0  0  0  0  0  0  0  0  0  0
  -28.7060    4.4456   -0.8910 H   0  0  0  0  0  0  0  0  0  0  0  0
  -36.0347    9.0466   -7.1888 H   0  0  0  0  0  0  0  0  0  0  0  0
  -30.5586   16.7892  -14.4709 H   0  0  0  0  0  0  0  0  0  0  0  0
  -32.5200   10.2830   -1.2020 C   0  0  0  0  0  0  0  0  0  0  0  0
  -33.2020    5.9830   -2.3260 C   0  0  0  0  0  0  0  0  0  0  0  0
  -33.8700    8.0470   -2.0460 C   0  0  0  0  0  0  0  0  0  0  0  0
  -32.5360    7.9960   -1.6690 C   0  0  0  0  0  0  0  0  0  0  0  0
  -34.5470    9.2300   -1.9580 C   0  0  0  0  0  0  0  0  0  0  0  0
  -33.2700   13.5300  -10.9150 C   0  0  0  0  0  0  0  0  0  0  0  0
  -34.1770    9.6200   -8.8840 C   0  0  0  0  0  0  0  0  0  0  0  0
  -30.0370    4.3660   -2.8770 C   0  0  1  0  0  0  0  0  0  0  0  0
  -30.5580    4.7850   -1.5320 C   0  0  2  0  0  0  0  0  0  0  0  0
  -29.3000    5.5770   -3.3260 C   0  0  1  0  0  0  0  0  0  0  0  0
  -30.7290    6.2940   -1.6630 C   0  0  2  0  0  0  0  0  0  0  0  0
  -32.8020    7.3980   -6.0830 C   0  0  0  0  0  0  0  0  0  0  0  0
  -32.6960    9.9180   -6.1170 C   0  0  0  0  0  0  0  0  0  0  0  0
  -33.9880   12.2520  -10.5580 C   0  0  1  0  0  0  0  0  0  0  0  0
  -29.1770    5.6770   -4.8170 C   0  0  2  0  0  0  0  0  0  0  0  0
  -34.1280   12.0560   -9.0620 C   0  0  1  0  0  0  0  0  0  0  0  0
  -31.1930   14.6420  -11.6250 C   0  0  1  0  0  0  0  0  0  0  0  0
  -31.5330    8.5770   -7.7740 C   0  0  1  0  0  0  0  0  0  0  0  0
  -31.3120   15.0580  -13.0710 C   0  0  2  0  0  0  0  0  0  0  0  0
  -34.1490    8.6570   -7.7190 C   0  0  1  0  0  0  0  0  0  0  0  0
  -32.8090    8.6440   -6.9550 C   0  0  1  0  0  0  0  0  0  0  0  0
  -31.8540    9.0860   -1.2990 N   0  0  0  0  0  0  0  0  0  0  0  0
  -33.8480   10.3220   -1.5210 N   0  0  0  0  0  0  0  0  0  0  0  0
  -34.2620    6.8230   -2.4180 N   0  0  0  0  0  0  0  0  0  0  0  0
  -32.1140    6.7170   -1.8520 N   0  0  0  0  0  0  0  0  0  0  0  0
  -35.8550    9.2960   -2.2900 N   0  0  0  0  0  0  0  0  0  0  0  0
  -32.0240   13.4620  -11.3920 N   0  0  0  0  0  0  0  0  0  0  0  0
  -34.8150   10.7920   -8.7880 N   0  0  0  0  0  0  0  0  0  0  0  0
  -30.5510    1.5440   -1.5390 O   0  5  0  0  0  0  0  0  0  0  0  0
  -28.5590    0.9420   -3.0130 O   0  5  0  0  0  0  0  0  0  0  0  0
  -27.2820    8.2020   -6.9320 O   0  5  0  0  0  0  0  0  0  0  0  0
  -30.0100    5.7610   -9.6620 O   0  5  0  0  0  0  0  0  0  0  0  0
  -33.8930   14.5710  -10.8010 O   0  0  0  0  0  0  0  0  0  0  0  0
  -33.4860    9.3100  -10.0520 O   0  0  0  0  0  0  0  0  0  0  0  0
  -30.7230    1.6810   -3.9370 O   0  0  0  0  0  0  0  0  0  0  0  0
  -26.8560    5.7500   -6.7980 O   0  0  0  0  0  0  0  0  0  0  0  0
  -29.0770    8.0280   -9.3830 O   0  0  0  0  0  0  0  0  0  0  0  0
  -30.0220    6.6300   -2.8270 O   0  0  0  0  0  0  0  0  0  0  0  0
  -29.6270    4.4900   -0.5040 O   0  0  0  0  0  0  0  0  0  0  0  0
  -35.1350    9.0200   -6.7530 O   0  0  0  0  0  0  0  0  0  0  0  0
  -29.1620    3.2840   -2.7540 O   0  0  0  0  0  0  0  0  0  0  0  0
  -28.4390    6.8380   -5.1580 O   0  0  0  0  0  0  0  0  0  0  0  0
  -31.3060    7.2800   -8.2430 O   0  0  0  0  0  0  0  0  0  0  0  0
  -29.1520    6.3640   -7.4310 O   0  0  0  0  0  0  0  0  0  0  0  0
  -29.7720    1.7730   -2.7920 P   0  0  0  0  0  0  0  0  0  0  0  0
  -27.8350    6.8260   -6.6480 P   0  0  1  0  0  0  0  0  0  0  0  0
  -29.8580    6.8840   -8.7620 P   0  0  1  0  0  0  0  0  0  0  0  0
  -30.4270   16.5890  -13.5000 S   0  0  0  0  0  0  0  0  0  0  0  0
  1 33  1  0  0  0  0
  2 34  1  0  0  0  0
  3 40  1  0  0  0  0
  4 41  1  0  0  0  0
  5 42  1  0  0  0  0
  6 43  1  0  0  0  0
  7 44  1  0  0  0  0
  8 44  1  0  0  0  0
  9 44  1  0  0  0  0
 10 45  1  0  0  0  0
 11 45  1  0  0  0  0
 12 45  1  0  0  0  0
 13 46  1  0  0  0  0
 14 46  1  0  0  0  0
 15 47  1  0  0  0  0
 16 47  1  0  0  0  0
 17 48  1  0  0  0  0
 18 48  1  0  0  0  0
 19 49  1  0  0  0  0
 20 49  1  0  0  0  0
 21 50  1  0  0  0  0
 22 50  1  0  0  0  0
 23 51  1  0  0  0  0
 24 51  1  0  0  0  0
 25 52  1  0  0  0  0
 26 58  1  0  0  0  0
 27 58  1  0  0  0  0
 28 59  1  0  0  0  0
 29 60  1  0  0  0  0
 30 71  1  0  0  0  0
 31 72  1  0  0  0  0
 32 80  1  0  0  0  0
 33 54  1  0  0  0  0
 33 55  2  0  0  0  0
 34 56  2  0  0  0  0
 34 57  1  0  0  0  0
 35 36  1  0  0  0  0
 35 37  2  0  0  0  0
 35 56  1  0  0  0  0
 36 54  2  0  0  0  0
 36 57  1  0  0  0  0
 37 55  1  0  0  0  0
 37 58  1  0  0  0  0
 38 46  1  0  0  0  0
 38 59  1  0  0  0  0
 38 65  2  0  0  0  0
 39 52  1  0  0  0  0
 39 60  1  0  0  0  0
 39 66  2  0  0  0  0
 40 41  1  0  0  0  0
 40 42  1  0  0  0  0
 40 73  1  0  0  0  0
 41 43  1  0  0  0  0
 41 71  1  0  0  0  0
 42 47  1  0  0  0  0
 42 70  1  0  0  0  0
 43 57  1  0  0  0  0
 43 70  1  0  0  0  0
 44 53  1  0  0  0  0
 45 53  1  0  0  0  0
 46 48  1  0  0  0  0
 47 74  1  0  0  0  0
 48 60  1  0  0  0  0
 49 51  1  0  0  0  0
 49 59  1  0  0  0  0
 50 53  1  0  0  0  0
 50 75  1  0  0  0  0
 51 80  1  0  0  0  0
 52 53  1  0  0  0  0
 52 72  1  0  0  0  0
 61 77  1  0  0  0  0
 62 77  1  0  0  0  0
 63 78  1  0  0  0  0
 64 79  1  0  0  0  0
 67 77  2  0  0  0  0
 68 78  2  0  0  0  0
 69 79  2  0  0  0  0
 73 77  1  0  0  0  0
 74 78  1  0  0  0  0
 75 79  1  0  0  0  0
 76 78  1  0  0  0  0
 76 79  1  0  0  0  0
M  CHG  4  61  -1  62  -1  63  -1  64  -1
M  END
> <scpdb_id>
2c43_1

$$$$
