#    Name: 16491
#    Modification time : Tue Aug  8 20:33:34 2017

@<TRIPOS>MOLECULE
16491
   63     0     6     0     0
SMALL
NO_CHARGES


@<TRIPOS>ATOM
      1 N          34.5200   19.4360   87.6610 N.am      1 SEL1        0.0000 
      2 N          34.4800   17.6140   88.7450 N.am      1 SEL1        0.0000 
      3 CA         44.8810   13.7290   80.3060 C.3       2 GLL5        0.0000 
      4 CA         45.2850   16.0050   81.3140 C.3       2 GLL5        0.0000 
      5 CA         43.1960   12.1360   81.2870 C.3       2 GLL5        0.0000 
      6 CA         42.4490   14.0240   79.7660 C.3       2 GLL5        0.0000 
      7 CA         44.1180   16.6370   83.4360 C.3       2 GLL5        0.0000 
      8 CA         40.1800   13.1080   85.1060 C.3       2 GLL5        0.0000 
      9 CA         36.3710   15.5360   88.0270 C.3       2 GLL5        0.0000 
     10 CA         45.3390   15.1390   80.0840 C.3       2 GLL5        0.0000 
     11 N          31.8360   19.6730   87.9410 N.am      3 SEP1        0.0000 
     12 N          32.9440   19.4080   90.4600 N.am      3 SEP1        0.0000 
     13 N          31.4990   16.5760   89.0600 N.am      3 SEP1        0.0000 
     14 CA         45.3120   11.5370   76.8360 C.3       4 GLP5        0.0000 
     15 CA         43.5840   19.2260   78.8440 C.3       4 GLP5        0.0000 
     16 CA         42.2920    9.2890   83.4610 C.3       4 GLP5        0.0000 
     17 CA         39.3920   11.6130   80.8800 C.3       4 GLP5        0.0000 
     18 CA         43.2300    8.1250   79.4900 C.3       4 GLP5        0.0000 
     19 CA         40.6260   17.3640   80.5230 C.3       4 GLP5        0.0000 
     20 CA         39.5950   11.2410   79.5540 C.3       4 GLP5        0.0000 
     21 CA         45.0750   15.9250   76.7450 C.3       4 GLP5        0.0000 
     22 CA         41.1330   19.6350   84.8760 C.3       4 GLP5        0.0000 
     23 CA         47.2130   19.3810   83.6510 C.3       4 GLP5        0.0000 
     24 CA         46.8310   15.9810   86.4380 C.3       4 GLP5        0.0000 
     25 CA         44.4650   12.1060   85.8080 C.3       4 GLP5        0.0000 
     26 CA         41.2970   14.0380   88.5970 C.3       4 GLP5        0.0000 
     27 CA         40.7990    9.4860   84.4190 C.3       4 GLP5        0.0000 
     28 CA         36.4650   12.4340   85.6940 C.3       4 GLP5        0.0000 
     29 CA         38.7290   12.7790   81.1710 C.3       4 GLP5        0.0000 
     30 CA         33.6600   15.8710   91.4580 C.3       4 GLP5        0.0000 
     31 CA         37.9050   17.9170   90.6220 C.3       4 GLP5        0.0000 
     32 CA         36.0950   13.2670   90.9360 C.3       4 GLP5        0.0000 
     33 CA         34.5640   14.1680   85.3320 C.3       4 GLP5        0.0000 
     34 CA         49.3320   14.3400   80.2150 C.3       4 GLP5        0.0000 
     35 CA         47.7540   18.3320   78.4440 C.3       4 GLP5        0.0000 
     36 N          33.1780   19.5545   87.8010 N.am      5 SEC1        0.0000 
     37 N          33.7320   19.4220   89.0605 N.am      5 SEC1        0.0000 
     38 N          33.1580   18.6435   88.3430 N.am      5 SEC1        0.0000 
     39 N          33.7120   18.5110   89.6025 N.am      5 SEC1        0.0000 
     40 N          32.9895   17.0950   88.9025 N.am      5 SEC1        0.0000 
     41 CA         45.0965   12.6330   78.5710 C.3       6 GLC5        0.0000 
     42 CA         44.4345   17.6155   80.0790 C.3       6 GLC5        0.0000 
     43 CA         42.7440   10.7125   82.3740 C.3       6 GLC5        0.0000 
     44 CA         41.2940   11.8745   81.0835 C.3       6 GLC5        0.0000 
     45 CA         43.2130   10.1305   80.3885 C.3       6 GLC5        0.0000 
     46 CA         41.5375   15.6940   80.1445 C.3       6 GLC5        0.0000 
     47 CA         41.0220   12.6325   79.6600 C.3       6 GLC5        0.0000 
     48 CA         43.7620   14.9745   78.2555 C.3       6 GLC5        0.0000 
     49 CA         42.6255   18.1360   84.1560 C.3       6 GLC5        0.0000 
     50 CA         45.6655   18.0090   83.5435 C.3       6 GLC5        0.0000 
     51 CA         45.4745   16.3090   84.9370 C.3       6 GLC5        0.0000 
     52 CA         42.3225   12.6070   85.4570 C.3       6 GLC5        0.0000 
     53 CA         40.7385   13.5730   86.8515 C.3       6 GLC5        0.0000 
     54 CA         40.4895   11.2970   84.7625 C.3       6 GLC5        0.0000 
     55 CA         38.3225   12.7710   85.4000 C.3       6 GLC5        0.0000 
     56 CA         39.4545   12.9435   83.1385 C.3       6 GLC5        0.0000 
     57 CA         35.0155   15.7035   89.7425 C.3       6 GLC5        0.0000 
     58 CA         37.1380   16.7265   89.3245 C.3       6 GLC5        0.0000 
     59 CA         36.2330   14.4015   89.4815 C.3       6 GLC5        0.0000 
     60 CA         35.4675   14.8520   86.6795 C.3       6 GLC5        0.0000 
     61 CA         47.2210   14.3870   80.2050 C.3       6 GLC5        0.0000 
     62 CA         45.0925   15.1795   78.4700 C.3       6 GLC5        0.0000 
     63 CA         46.5330   16.9520   79.5715 C.3       6 GLC5        0.0000 
@<TRIPOS>BOND
@<TRIPOS>SUBSTRUCTURE
     1 SEL1        1 GROUP        1 Z    SEL  0     ROOT SEL Z 0
     2 GLL5        3 GROUP        1 Z    GLL  0     **** GLL Z 4
     3 SEP1       11 GROUP        1 Z    SEP  0     **** SEP Z 7
     4 GLP5       14 GROUP        1 Z    GLP  0     **** GLP Z 11
     5 SEC1       36 GROUP        1 Z    SEC  0     **** SEC Z 14
     6 GLC5       41 GROUP        1 Z    GLC  0     **** GLC Z 18
@<TRIPOS>SET

