@<TRIPOS>MOLECULE
2lbd_REA_1_ligand
   49    49     1     0     0
SMALL
NO_CHARGES


@<TRIPOS>ATOM
     1 C1          43.4480    13.5960    80.8680 C.3          1 REA500   0.0000
     2 C2          44.8810    13.7290    80.3060 C.3          1 REA500   0.0000
     3 C3          45.3390    15.1390    80.0840 C.3          1 REA500   0.0000
     4 C4          45.2850    16.0050    81.3140 C.3          1 REA500   0.0000
     5 C5          44.1500    15.6240    82.2890 C.2          1 REA500   0.0000
     6 C6          43.3240    14.5220    82.1100 C.2          1 REA500   0.0000
     7 C7          42.2690    14.1000    83.0490 C.2          1 REA500   0.0000
     8 C8          41.3630    14.8890    83.6470 C.2          1 REA500   0.0000
     9 C9          40.3520    14.5420    84.6120 C.2          1 REA500   0.0000
    10 C10         39.5830    15.5580    85.0310 C.2          1 REA500   0.0000
    11 C11         38.5310    15.4760    85.9980 C.2          1 REA500   0.0000
    12 C12         37.8300    16.5880    86.1850 C.2          1 REA500   0.0000
    13 C13         36.7510    16.7220    87.1170 C.2          1 REA500   0.0000
    14 C14         36.1150    17.9010    87.1220 C.2          1 REA500   0.0000
    15 C15         34.9830    18.3360    87.8940 C.2          1 REA500   0.0000
    16 C16         43.1960    12.1360    81.2870 C.3          1 REA500   0.0000
    17 C17         42.4490    14.0240    79.7660 C.3          1 REA500   0.0000
    18 C18         44.1180    16.6370    83.4360 C.3          1 REA500   0.0000
    19 C19         40.1800    13.1080    85.1060 C.3          1 REA500   0.0000
    20 C20         36.3710    15.5360    88.0270 C.3          1 REA500   0.0000
    21 O1          34.5200    19.4360    87.6610 O.co2        1 REA500   0.0000
    22 O2          34.4800    17.6140    88.7450 O.co2        1 REA500  -1.0000
    23 H1          44.9178    13.2481    79.4300 H            1 REA500   0.0000
    24 H2          45.5100    13.2952    80.9511 H            1 REA500   0.0000
    25 H3          44.7563    15.5517    79.3839 H            1 REA500   0.0000
    26 H4          46.2843    15.1144    79.7588 H            1 REA500   0.0000
    27 H5          45.1503    16.9535    81.0272 H            1 REA500   0.0000
    28 H6          46.1570    15.9234    81.7966 H            1 REA500   0.0000
    29 H7          42.2237    13.1241    83.2627 H            1 REA500   0.0000
    30 H8          41.3944    15.8537    83.3857 H            1 REA500   0.0000
    31 H9          39.7614    16.4567    84.6303 H            1 REA500   0.0000
    32 H10         38.3362    14.6341    86.5012 H            1 REA500   0.0000
    33 H11         38.0725    17.3882    85.6365 H            1 REA500   0.0000
    34 H12         36.4846    18.5837    86.4916 H            1 REA500   0.0000
    35 H13         42.2686    12.0490    81.6509 H            1 REA500   0.0000
    36 H14         43.2995    11.5384    80.4919 H            1 REA500   0.0000
    37 H15         43.8562    11.8724    81.9903 H            1 REA500   0.0000
    38 H16         41.5148    13.9438    80.1136 H            1 REA500   0.0000
    39 H17         42.6272    14.9727    79.5047 H            1 REA500   0.0000
    40 H18         42.5596    13.4320    78.9677 H            1 REA500   0.0000
    41 H19         43.3849    16.3970    84.0724 H            1 REA500   0.0000
    42 H20         44.9946    16.6237    83.9170 H            1 REA500   0.0000
    43 H21         43.9536    17.5522    83.0680 H            1 REA500   0.0000
    44 H22         39.4313    13.0710    85.7679 H            1 REA500   0.0000
    45 H23         39.9699    12.5115    84.3314 H            1 REA500   0.0000
    46 H24         41.0261    12.8020    85.5424 H            1 REA500   0.0000
    47 H25         35.6032    15.7973    88.6119 H            1 REA500   0.0000
    48 H26         36.1087    14.7534    87.4625 H            1 REA500   0.0000
    49 H27         37.1548    15.2884    88.5966 H            1 REA500   0.0000
@<TRIPOS>BOND
     1    1    2       1
     2    1    6       1
     3    1   16       1
     4    1   17       1
     5    2    3       1
     6    3    4       1
     7    4    5       1
     8    5    6       2
     9    5   18       1
    10    6    7       1
    11    7    8       2
    12    8    9       1
    13    9   10       2
    14    9   19       1
    15   10   11       1
    16   11   12       2
    17   12   13       1
    18   13   14       2
    19   13   20       1
    20   14   15       1
    21   15   21      ar
    22   15   22      ar
    23    2   23       1
    24    2   24       1
    25    3   25       1
    26    3   26       1
    27    4   27       1
    28    4   28       1
    29    7   29       1
    30    8   30       1
    31   10   31       1
    32   11   32       1
    33   12   33       1
    34   14   34       1
    35   16   35       1
    36   16   36       1
    37   16   37       1
    38   17   38       1
    39   17   39       1
    40   17   40       1
    41   18   41       1
    42   18   42       1
    43   18   43       1
    44   19   44       1
    45   19   45       1
    46   19   46       1
    47   20   47       1
    48   20   48       1
    49   20   49       1
@<TRIPOS>SUBSTRUCTURE
     1 REA500      1 GROUP             4 A     REA     0 **** REA A 500
