2lbd_REA_1_ligand
  -OEChem-08111718373D

 49 49  0     1  0  0  0  0  0999 V2000
   42.2237   13.1241   83.2627 H   0  0  0  0  0  0  0  0  0  0  0  0
   41.3944   15.8537   83.3857 H   0  0  0  0  0  0  0  0  0  0  0  0
   38.3362   14.6341   86.5012 H   0  0  0  0  0  0  0  0  0  0  0  0
   38.0725   17.3882   85.6365 H   0  0  0  0  0  0  0  0  0  0  0  0
   39.7614   16.4567   84.6303 H   0  0  0  0  0  0  0  0  0  0  0  0
   36.4846   18.5837   86.4916 H   0  0  0  0  0  0  0  0  0  0  0  0
   45.1503   16.9535   81.0272 H   0  0  0  0  0  0  0  0  0  0  0  0
   46.1570   15.9234   81.7966 H   0  0  0  0  0  0  0  0  0  0  0  0
   44.7563   15.5517   79.3839 H   0  0  0  0  0  0  0  0  0  0  0  0
   46.2843   15.1144   79.7588 H   0  0  0  0  0  0  0  0  0  0  0  0
   44.9178   13.2481   79.4300 H   0  0  0  0  0  0  0  0  0  0  0  0
   45.5100   13.2952   80.9511 H   0  0  0  0  0  0  0  0  0  0  0  0
   43.3849   16.3970   84.0724 H   0  0  0  0  0  0  0  0  0  0  0  0
   44.9946   16.6237   83.9170 H   0  0  0  0  0  0  0  0  0  0  0  0
   43.9536   17.5522   83.0680 H   0  0  0  0  0  0  0  0  0  0  0  0
   39.4313   13.0710   85.7679 H   0  0  0  0  0  0  0  0  0  0  0  0
   39.9699   12.5115   84.3314 H   0  0  0  0  0  0  0  0  0  0  0  0
   41.0261   12.8020   85.5424 H   0  0  0  0  0  0  0  0  0  0  0  0
   35.6032   15.7973   88.6119 H   0  0  0  0  0  0  0  0  0  0  0  0
   36.1087   14.7534   87.4625 H   0  0  0  0  0  0  0  0  0  0  0  0
   37.1548   15.2884   88.5966 H   0  0  0  0  0  0  0  0  0  0  0  0
   42.2686   12.0490   81.6509 H   0  0  0  0  0  0  0  0  0  0  0  0
   43.2995   11.5384   80.4919 H   0  0  0  0  0  0  0  0  0  0  0  0
   43.8562   11.8724   81.9903 H   0  0  0  0  0  0  0  0  0  0  0  0
   41.5148   13.9438   80.1136 H   0  0  0  0  0  0  0  0  0  0  0  0
   42.6272   14.9727   79.5047 H   0  0  0  0  0  0  0  0  0  0  0  0
   42.5596   13.4320   78.9677 H   0  0  0  0  0  0  0  0  0  0  0  0
   43.3240   14.5220   82.1100 C   0  0  0  0  0  0  0  0  0  0  0  0
   44.1500   15.6240   82.2890 C   0  0  0  0  0  0  0  0  0  0  0  0
   42.2690   14.1000   83.0490 C   0  0  0  0  0  0  0  0  0  0  0  0
   41.3630   14.8890   83.6470 C   0  0  0  0  0  0  0  0  0  0  0  0
   38.5310   15.4760   85.9980 C   0  0  0  0  0  0  0  0  0  0  0  0
   37.8300   16.5880   86.1850 C   0  0  0  0  0  0  0  0  0  0  0  0
   39.5830   15.5580   85.0310 C   0  0  0  0  0  0  0  0  0  0  0  0
   36.1150   17.9010   87.1220 C   0  0  0  0  0  0  0  0  0  0  0  0
   40.3520   14.5420   84.6120 C   0  0  0  0  0  0  0  0  0  0  0  0
   36.7510   16.7220   87.1170 C   0  0  0  0  0  0  0  0  0  0  0  0
   34.9830   18.3360   87.8940 C   0  0  0  0  0  0  0  0  0  0  0  0
   45.2850   16.0050   81.3140 C   0  0  1  0  0  0  0  0  0  0  0  0
   45.3390   15.1390   80.0840 C   0  0  1  0  0  0  0  0  0  0  0  0
   44.8810   13.7290   80.3060 C   0  0  1  0  0  0  0  0  0  0  0  0
   43.4480   13.5960   80.8680 C   0  0  1  0  0  0  0  0  0  0  0  0
   44.1180   16.6370   83.4360 C   0  0  0  0  0  0  0  0  0  0  0  0
   40.1800   13.1080   85.1060 C   0  0  0  0  0  0  0  0  0  0  0  0
   36.3710   15.5360   88.0270 C   0  0  0  0  0  0  0  0  0  0  0  0
   43.1960   12.1360   81.2870 C   0  0  0  0  0  0  0  0  0  0  0  0
   42.4490   14.0240   79.7660 C   0  0  0  0  0  0  0  0  0  0  0  0
   34.4800   17.6140   88.7450 O   0  5  0  0  0  0  0  0  0  0  0  0
   34.5200   19.4360   87.6610 O   0  0  0  0  0  0  0  0  0  0  0  0
  1 30  1  0  0  0  0
  2 31  1  0  0  0  0
  3 32  1  0  0  0  0
  4 33  1  0  0  0  0
  5 34  1  0  0  0  0
  6 35  1  0  0  0  0
  7 39  1  0  0  0  0
  8 39  1  0  0  0  0
  9 40  1  0  0  0  0
 10 40  1  0  0  0  0
 11 41  1  0  0  0  0
 12 41  1  0  0  0  0
 13 43  1  0  0  0  0
 14 43  1  0  0  0  0
 15 43  1  0  0  0  0
 16 44  1  0  0  0  0
 17 44  1  0  0  0  0
 18 44  1  0  0  0  0
 19 45  1  0  0  0  0
 20 45  1  0  0  0  0
 21 45  1  0  0  0  0
 22 46  1  0  0  0  0
 23 46  1  0  0  0  0
 24 46  1  0  0  0  0
 25 47  1  0  0  0  0
 26 47  1  0  0  0  0
 27 47  1  0  0  0  0
 28 29  2  0  0  0  0
 28 30  1  0  0  0  0
 28 42  1  0  0  0  0
 29 39  1  0  0  0  0
 29 43  1  0  0  0  0
 30 31  2  0  0  0  0
 31 36  1  0  0  0  0
 32 33  2  0  0  0  0
 32 34  1  0  0  0  0
 33 37  1  0  0  0  0
 34 36  2  0  0  0  0
 35 37  2  0  0  0  0
 35 38  1  0  0  0  0
 36 44  1  0  0  0  0
 37 45  1  0  0  0  0
 38 48  1  0  0  0  0
 38 49  2  0  0  0  0
 39 40  1  0  0  0  0
 40 41  1  0  0  0  0
 41 42  1  0  0  0  0
 42 46  1  0  0  0  0
 42 47  1  0  0  0  0
M  CHG  1  48  -1
M  END
> <scpdb_id>
2lbd_1

$$$$
