#    Name: 8036
#    Modification time : Tue Aug  8 21:46:22 2017

@<TRIPOS>MOLECULE
8036
   29     0    12     0     0
SMALL
NO_CHARGES


@<TRIPOS>ATOM
      1 N          44.1880   18.8690   48.5330 N.am      1 SEL1        0.0000 
      2 O          44.5950   17.2190   46.1300 O.2       2 ALL2        0.0000 
      3 CA         43.1910   17.8570   50.8650 C.3       3 GLL5        0.0000 
      4 CA         42.8880   13.5230   48.4980 C.3       3 GLL5        0.0000 
      5 CA         44.9850   13.1650   49.8660 C.3       3 GLL5        0.0000 
      6 CA         44.1720   12.7070   48.6540 C.3       3 GLL5        0.0000 
      7 CZ         44.1970   16.1704   46.5402 C.ar      4 PHL6        0.0000 
      8 N          45.3040   20.9290   46.8430 N.am      5 SEP1        0.0000 
      9 O          45.4700   19.5320   45.0850 O.2       6 ALP2        0.0000 
     10 CA         44.1920   20.0750   53.8920 C.3       7 GLP5        0.0000 
     11 CA         40.6450   21.3960   49.9670 C.3       7 GLP5        0.0000 
     12 CA         40.6710   17.9320   47.7880 C.3       7 GLP5        0.0000 
     13 CA         39.3890   10.7980   47.7770 C.3       7 GLP5        0.0000 
     14 CA         40.1410   15.8030   46.7930 C.3       7 GLP5        0.0000 
     15 CA         47.2650   14.1590   52.8980 C.3       7 GLP5        0.0000 
     16 CA         47.8210   15.7030   47.5990 C.3       7 GLP5        0.0000 
     17 CA         46.5330   12.2130   45.9650 C.3       7 GLP5        0.0000 
     18 CZ         40.5630   17.1250   46.6563 C.ar      8 PHP6        0.0000 
     19 N          44.7460   19.8990   47.6880 N.am      9 SEC1        0.0000 
     20 O          45.0325   18.3755   45.6075 O.2      10 ALC2        0.0000 
     21 CA         43.6915   18.9660   52.3785 C.3      11 GLC5        0.0000 
     22 CA         41.9180   19.6265   50.4160 C.3      11 GLC5        0.0000 
     23 CA         41.9310   17.8945   49.3265 C.3      11 GLC5        0.0000 
     24 CA         41.1385   12.1605   48.1375 C.3      11 GLC5        0.0000 
     25 CA         41.5145   14.6630   47.6455 C.3      11 GLC5        0.0000 
     26 CA         46.1250   13.6620   51.3820 C.3      11 GLC5        0.0000 
     27 CA         46.4030   14.4340   48.7325 C.3      11 GLC5        0.0000 
     28 CA         45.4139   12.3316   47.4733 C.3      11 GLC5        0.0000 
     29 CZ         42.3800   16.6477   46.5983 C.ar     12 PHC6        0.0000 
@<TRIPOS>BOND
@<TRIPOS>SUBSTRUCTURE
     1 SEL1        1 GROUP        1 Z    SEL  0     ROOT SEL Z 0
     2 ALL2        2 GROUP        1 Z    ALL  0     **** ALL Z 1
     3 GLL5        3 GROUP        1 Z    GLL  0     **** GLL Z 4
     4 PHL6        7 GROUP        1 Z    PHL  0     **** PHL Z 6
     5 SEP1        8 GROUP        1 Z    SEP  0     **** SEP Z 7
     6 ALP2        9 GROUP        1 Z    ALP  0     **** ALP Z 8
     7 GLP5       10 GROUP        1 Z    GLP  0     **** GLP Z 11
     8 PHP6       18 GROUP        1 Z    PHP  0     **** PHP Z 13
     9 SEC1       19 GROUP        1 Z    SEC  0     **** SEC Z 14
    10 ALC2       20 GROUP        1 Z    ALC  0     **** ALC Z 15
    11 GLC5       21 GROUP        1 Z    GLC  0     **** GLC Z 18
    12 PHC6       29 GROUP        1 Z    PHC  0     **** PHC Z 20
@<TRIPOS>SET

