@<TRIPOS>MOLECULE
1rkp_IBM_1_ligand
   30    31     1     0     0
SMALL
NO_CHARGES


@<TRIPOS>ATOM
     1 N9          44.0280    15.0490    46.2360 N.2          1 IBM201   0.0000
     2 C8          44.5430    16.0780    45.4870 C.2          1 IBM201   0.0000
     3 N7          44.5950    17.2190    46.1300 N.pl3        1 IBM201   0.0000
     4 C5          44.0860    16.9180    47.3830 C.2          1 IBM201   0.0000
     5 C4          43.7330    15.5880    47.4650 C.2          1 IBM201   0.0000
     6 N3          43.2110    14.9420    48.5290 N.pl3        1 IBM201   0.0000
     7 C2          43.0140    15.7300    49.6310 C.2          1 IBM201   0.0000
     8 N1          43.3590    17.0820    49.6440 N.pl3        1 IBM201   0.0000
     9 C6          43.8920    17.6790    48.5270 C.2          1 IBM201   0.0000
    10 O6          44.1880    18.8690    48.5330 O.2          1 IBM201   0.0000
    11 O2          42.5200    15.2330    50.6370 O.2          1 IBM201   0.0000
    12 C10         43.1910    17.8570    50.8650 C.3          1 IBM201   0.0000
    13 C11         42.8880    13.5230    48.4980 C.3          1 IBM201   0.0000
    14 C12         44.1720    12.7070    48.6540 C.3          1 IBM201   0.0000
    15 C13         44.9850    13.1650    49.8660 C.3          1 IBM201   0.0000
    16 C14         43.8500    11.2220    48.7520 C.3          1 IBM201   0.0000
    17 H1          44.8491    15.9675    44.5414 H            1 IBM201   0.0000
    18 H2          43.4828    18.7999    50.7042 H            1 IBM201   0.0000
    19 H3          42.2285    17.8476    51.1360 H            1 IBM201   0.0000
    20 H4          43.7463    17.4559    51.5935 H            1 IBM201   0.0000
    21 H5          42.4538    13.2985    47.6256 H            1 IBM201   0.0000
    22 H6          42.2620    13.3068    49.2473 H            1 IBM201   0.0000
    23 H7          44.7297    12.8490    47.8362 H            1 IBM201   0.0000
    24 H8          45.8153    12.6125    49.9385 H            1 IBM201   0.0000
    25 H9          45.2335    14.1274    49.7563 H            1 IBM201   0.0000
    26 H10         44.4376    13.0546    50.6956 H            1 IBM201   0.0000
    27 H11         44.6987    10.7029    48.8535 H            1 IBM201   0.0000
    28 H12         43.2632    11.0598    49.5453 H            1 IBM201   0.0000
    29 H13         43.3767    10.9280    47.9216 H            1 IBM201   0.0000
    30 H14         44.9251    18.1013    45.7944 H            1 IBM201   0.0000
@<TRIPOS>BOND
     1    1    2       2
     2    1    5       1
     3    2    3       1
     4    3    4       1
     5    4    5       2
     6    4    9       1
     7    5    6       1
     8    6    7       1
     9    6   13       1
    10    7    8       1
    11    7   11       2
    12    8    9       1
    13    8   12       1
    14    9   10       2
    15   13   14       1
    16   14   15       1
    17   14   16       1
    18   16   29       1
    19    2   17       1
    20   12   18       1
    21   12   19       1
    22   12   20       1
    23   13   21       1
    24   13   22       1
    25   14   23       1
    26   15   24       1
    27   15   25       1
    28   15   26       1
    29   16   27       1
    30   16   28       1
    31    3   30       1
@<TRIPOS>SUBSTRUCTURE
     1 IBM201      1 GROUP             4 A     IBM     0 **** IBM A 201
