1rkp_IBM_1_ligand
  -OEChem-08111718373D

 30 31  0     1  0  0  0  0  0999 V2000
   44.8491   15.9675   44.5414 H   0  0  0  0  0  0  0  0  0  0  0  0
   45.8153   12.6125   49.9385 H   0  0  0  0  0  0  0  0  0  0  0  0
   45.2335   14.1274   49.7563 H   0  0  0  0  0  0  0  0  0  0  0  0
   44.4376   13.0546   50.6956 H   0  0  0  0  0  0  0  0  0  0  0  0
   44.6987   10.7029   48.8535 H   0  0  0  0  0  0  0  0  0  0  0  0
   43.2632   11.0598   49.5453 H   0  0  0  0  0  0  0  0  0  0  0  0
   43.3767   10.9280   47.9216 H   0  0  0  0  0  0  0  0  0  0  0  0
   43.4828   18.7999   50.7042 H   0  0  0  0  0  0  0  0  0  0  0  0
   42.2285   17.8476   51.1360 H   0  0  0  0  0  0  0  0  0  0  0  0
   43.7463   17.4559   51.5935 H   0  0  0  0  0  0  0  0  0  0  0  0
   42.4538   13.2985   47.6256 H   0  0  0  0  0  0  0  0  0  0  0  0
   42.2620   13.3068   49.2473 H   0  0  0  0  0  0  0  0  0  0  0  0
   44.7297   12.8490   47.8362 H   0  0  0  0  0  0  0  0  0  0  0  0
   44.9251   18.1013   45.7944 H   0  0  0  0  0  0  0  0  0  0  0  0
   44.5430   16.0780   45.4870 C   0  0  0  0  0  0  0  0  0  0  0  0
   44.0860   16.9180   47.3830 C   0  0  0  0  0  0  0  0  0  0  0  0
   43.7330   15.5880   47.4650 C   0  0  0  0  0  0  0  0  0  0  0  0
   43.8920   17.6790   48.5270 C   0  0  0  0  0  0  0  0  0  0  0  0
   43.0140   15.7300   49.6310 C   0  0  0  0  0  0  0  0  0  0  0  0
   44.9850   13.1650   49.8660 C   0  0  0  0  0  0  0  0  0  0  0  0
   43.8500   11.2220   48.7520 C   0  0  0  0  0  0  0  0  0  0  0  0
   43.1910   17.8570   50.8650 C   0  0  0  0  0  0  0  0  0  0  0  0
   42.8880   13.5230   48.4980 C   0  0  1  0  0  0  0  0  0  0  0  0
   44.1720   12.7070   48.6540 C   0  0  1  0  0  0  0  0  0  0  0  0
   44.0280   15.0490   46.2360 N   0  0  0  0  0  0  0  0  0  0  0  0
   44.5950   17.2190   46.1300 N   0  0  0  0  0  0  0  0  0  0  0  0
   43.2110   14.9420   48.5290 N   0  0  0  0  0  0  0  0  0  0  0  0
   43.3590   17.0820   49.6440 N   0  0  0  0  0  0  0  0  0  0  0  0
   44.1880   18.8690   48.5330 O   0  0  0  0  0  0  0  0  0  0  0  0
   42.5200   15.2330   50.6370 O   0  0  0  0  0  0  0  0  0  0  0  0
  1 15  1  0  0  0  0
  2 20  1  0  0  0  0
  3 20  1  0  0  0  0
  4 20  1  0  0  0  0
  5 21  1  0  0  0  0
  6 21  1  0  0  0  0
  7 21  1  0  0  0  0
  8 22  1  0  0  0  0
  9 22  1  0  0  0  0
 10 22  1  0  0  0  0
 11 23  1  0  0  0  0
 12 23  1  0  0  0  0
 13 24  1  0  0  0  0
 14 26  1  0  0  0  0
 15 25  2  0  0  0  0
 15 26  1  0  0  0  0
 16 17  2  0  0  0  0
 16 18  1  0  0  0  0
 16 26  1  0  0  0  0
 17 25  1  0  0  0  0
 17 27  1  0  0  0  0
 18 28  1  0  0  0  0
 18 29  2  0  0  0  0
 19 27  1  0  0  0  0
 19 28  1  0  0  0  0
 19 30  2  0  0  0  0
 20 24  1  0  0  0  0
 21 24  1  0  0  0  0
 22 28  1  0  0  0  0
 23 24  1  0  0  0  0
 23 27  1  0  0  0  0
M  END
> <scpdb_id>
1rkp_1

$$$$
