#    Name: 28645
#    Modification time : Tue Aug  8 20:18:20 2017

@<TRIPOS>MOLECULE
28645
   56     0     9     0     0
SMALL
NO_CHARGES


@<TRIPOS>ATOM
      1 O         -20.1060  -10.7830   70.4830 O.2       1 ALL2        0.0000 
      2 OD1       -20.1060  -10.7830   70.4830 O.co2     2 ASL4        0.0000 
      3 CA        -21.4080  -11.9120   72.2260 C.3       3 GLL5        0.0000 
      4 CA        -25.1310  -13.2220   74.5770 C.3       3 GLL5        0.0000 
      5 CA        -25.3720  -12.8930   75.9110 C.3       3 GLL5        0.0000 
      6 CA        -24.8850  -11.7010   76.4270 C.3       3 GLL5        0.0000 
      7 CA        -23.0470  -15.7710   70.3490 C.3       3 GLL5        0.0000 
      8 CA        -22.4590  -16.5320   71.3550 C.3       3 GLL5        0.0000 
      9 CA        -23.0360  -14.8310   72.9600 C.3       3 GLL5        0.0000 
     10 CA        -27.1220  -11.0000   70.4340 C.3       3 GLL5        0.0000 
     11 CA        -22.4530  -16.0590   72.6630 C.3       3 GLL5        0.0000 
     12 CA        -25.8630  -11.2410   70.9820 C.3       3 GLL5        0.0000 
     13 CA        -26.5600  -13.4410   71.6280 C.3       3 GLL5        0.0000 
     14 CA        -28.1020  -11.9820   70.4850 C.3       3 GLL5        0.0000 
     15 CA        -27.8170  -13.2070   71.0850 C.3       3 GLL5        0.0000 
     16 CA        -23.9230  -11.1720   74.2860 C.3       3 GLL5        0.0000 
     17 O         -19.4880  -13.9280   70.1970 O.2       4 ALP2        0.0000 
     18 O         -21.9760   -9.7690   68.8750 O.2       4 ALP2        0.0000 
     19 OD1       -19.4880  -13.9280   70.1970 O.co2     5 ASP4        0.0000 
     20 CA        -21.0460  -13.5270   68.0510 C.3       6 GLP5        0.0000 
     21 CA        -25.5590  -17.3240   73.7470 C.3       6 GLP5        0.0000 
     22 CA        -25.9800  -15.4190   78.7490 C.3       6 GLP5        0.0000 
     23 CA        -25.7120  -14.3840   79.8290 C.3       6 GLP5        0.0000 
     24 CA        -24.5060  -18.6520   67.8040 C.3       6 GLP5        0.0000 
     25 CA        -20.1460  -14.7380   68.0760 C.3       6 GLP5        0.0000 
     26 CA        -25.2730  -19.1980   72.0870 C.3       6 GLP5        0.0000 
     27 CA        -20.6520  -14.0430   76.3350 C.3       6 GLP5        0.0000 
     28 CA        -27.0990  -14.0790   67.4150 C.3       6 GLP5        0.0000 
     29 CA        -26.6270  -17.1840   71.5030 C.3       6 GLP5        0.0000 
     30 CA        -26.9300   -9.1000   73.8600 C.3       6 GLP5        0.0000 
     31 CA        -31.7420  -12.4140   72.6850 C.3       6 GLP5        0.0000 
     32 CA        -28.3900   -9.1520   73.4410 C.3       6 GLP5        0.0000 
     33 CA        -28.7430  -10.7180   66.9890 C.3       6 GLP5        0.0000 
     34 CA        -28.1380  -14.8640   68.1770 C.3       6 GLP5        0.0000 
     35 O         -19.7970  -12.3555   70.3400 O.2       7 ALC2        0.0000 
     36 O         -21.0410  -10.2760   69.6790 O.2       7 ALC2        0.0000 
     37 OD1       -19.7970  -12.3555   70.3400 O.co2     8 ASC4        0.0000 
     38 CA        -21.2270  -12.7195   70.1385 C.3       9 GLC5        0.0000 
     39 CA        -25.3450  -15.2730   74.1620 C.3       9 GLC5        0.0000 
     40 CA        -25.6760  -14.1560   77.3300 C.3       9 GLC5        0.0000 
     41 CA        -25.2985  -13.0425   78.1280 C.3       9 GLC5        0.0000 
     42 CA        -23.7765  -17.2115   69.0765 C.3       9 GLC5        0.0000 
     43 CA        -21.3025  -15.6350   69.7155 C.3       9 GLC5        0.0000 
     44 CA        -23.8660  -17.8650   71.7210 C.3       9 GLC5        0.0000 
     45 CA        -21.8440  -14.4370   74.6475 C.3       9 GLC5        0.0000 
     46 CA        -27.1105  -12.5395   68.9245 C.3       9 GLC5        0.0000 
     47 CA        -22.1915  -14.3422   69.2765 C.3       9 GLC5        0.0000 
     48 CA        -24.9820  -16.1707   71.0025 C.3       9 GLC5        0.0000 
     49 CA        -24.2259  -16.2880   73.1546 C.3       9 GLC5        0.0000 
     50 CA        -26.3230  -10.4750   72.5720 C.3       9 GLC5        0.0000 
     51 CA        -26.9078  -15.2540   71.4297 C.3       9 GLC5        0.0000 
     52 CA        -29.8507  -12.5043   71.7350 C.3       9 GLC5        0.0000 
     53 CA        -28.0010  -10.3215   71.9502 C.3       9 GLC5        0.0000 
     54 CA        -28.1775  -11.1045   68.7242 C.3       9 GLC5        0.0000 
     55 CA        -27.8916  -13.7585   69.5489 C.3       9 GLC5        0.0000 
     56 CA        -25.5616  -10.2975   74.2233 C.3       9 GLC5        0.0000 
@<TRIPOS>BOND
@<TRIPOS>SUBSTRUCTURE
     1 ALL2        1 GROUP        1 Z    ALL  0     ROOT ALL Z 1
     2 ASL4        2 GROUP        1 Z    ASL  0     **** ASL Z 3
     3 GLL5        3 GROUP        1 Z    GLL  0     **** GLL Z 4
     4 ALP2       17 GROUP        1 Z    ALP  0     **** ALP Z 8
     5 ASP4       19 GROUP        1 Z    ASP  0     **** ASP Z 10
     6 GLP5       20 GROUP        1 Z    GLP  0     **** GLP Z 11
     7 ALC2       35 GROUP        1 Z    ALC  0     **** ALC Z 15
     8 ASC4       37 GROUP        1 Z    ASC  0     **** ASC Z 17
     9 GLC5       38 GROUP        1 Z    GLC  0     **** GLC Z 18
@<TRIPOS>SET

