@<TRIPOS>MOLECULE
3ken_ZZD_1_ligand
   47    49     1     0     0
SMALL
NO_CHARGES


@<TRIPOS>ATOM
     1 N          -20.1060   -10.7830    70.4830 N.4          1 ZZD370   1.0000
     2 CA         -20.3150   -10.8790    71.9350 C.3          1 ZZD370   0.0000
     3 CB         -21.4080   -11.9120    72.2260 C.3          1 ZZD370   0.0000
     4 C          -19.0050   -11.2760    72.6200 C.2          1 ZZD370   0.0000
     5 O          -19.0220   -11.3950    73.8650 O.co2        1 ZZD370   0.0000
     6 OXT        -18.0060   -11.4420    71.8880 O.co2        1 ZZD370  -1.0000
     7 SG         -23.0380   -11.4490    71.5300 S.3          1 ZZD370   0.0000
     8 CAM        -25.1310   -13.2220    74.5770 C.ar         1 ZZD370   0.0000
     9 CAG        -25.3720   -12.8930    75.9110 C.ar         1 ZZD370   0.0000
    10 CAD        -24.8850   -11.7010    76.4270 C.ar         1 ZZD370   0.0000
    11 CAH        -24.1570   -10.8350    75.6130 C.ar         1 ZZD370   0.0000
    12 CAN        -23.9230   -11.1720    74.2860 C.ar         1 ZZD370   0.0000
    13 CAV        -24.4060   -12.3680    73.7540 C.ar         1 ZZD370   0.0000
    14 CAZ        -24.2030   -12.6650    72.2580 C.3          1 ZZD370   0.0000
    15 CAX        -23.6290   -14.0590    71.9630 C.ar         1 ZZD370   0.0000
    16 CAQ        -23.6270   -14.5440    70.6550 C.ar         1 ZZD370   0.0000
    17 CAK        -23.0470   -15.7710    70.3490 C.ar         1 ZZD370   0.0000
    18 CAF        -22.4590   -16.5320    71.3550 C.ar         1 ZZD370   0.0000
    19 CAL        -22.4530   -16.0590    72.6630 C.ar         1 ZZD370   0.0000
    20 CAR        -23.0360   -14.8310    72.9600 C.ar         1 ZZD370   0.0000
    21 CAW        -25.5690   -12.4590    71.5860 C.ar         1 ZZD370   0.0000
    22 CAO        -26.5600   -13.4410    71.6280 C.ar         1 ZZD370   0.0000
    23 CAI        -27.8170   -13.2070    71.0850 C.ar         1 ZZD370   0.0000
    24 CAE        -28.1020   -11.9820    70.4850 C.ar         1 ZZD370   0.0000
    25 CAJ        -27.1220   -11.0000    70.4340 C.ar         1 ZZD370   0.0000
    26 CAP        -25.8630   -11.2410    70.9820 C.ar         1 ZZD370   0.0000
    27 H1         -19.3925   -10.1087    70.2928 H            1 ZZD370   0.0000
    28 H2         -19.8256   -11.6744    70.1269 H            1 ZZD370   0.0000
    29 HA         -20.6076    -9.9880    72.2821 H            1 ZZD370   0.0000
    30 HB1        -21.5005   -12.0068    73.2172 H            1 ZZD370   0.0000
    31 HB2        -21.1309   -12.7882    71.8317 H            1 ZZD370   0.0000
    32 HAM        -25.4838   -14.0821    74.2085 H            1 ZZD370   0.0000
    33 HAG        -25.8947   -13.5150    76.4940 H            1 ZZD370   0.0000
    34 HAD        -25.0563   -11.4630    77.3831 H            1 ZZD370   0.0000
    35 HAH        -23.8048    -9.9751    75.9826 H            1 ZZD370   0.0000
    36 HAN        -23.4010   -10.5487    73.7037 H            1 ZZD370   0.0000
    37 HAQ        -24.0482   -14.0024    69.9275 H            1 ZZD370   0.0000
    38 HAK        -23.0526   -16.1059    69.4068 H            1 ZZD370   0.0000
    39 HAF        -22.0426   -17.4150    71.1384 H            1 ZZD370   0.0000
    40 HAL        -22.0301   -16.6010    73.3892 H            1 ZZD370   0.0000
    41 HAR        -23.0293   -14.4976    73.9028 H            1 ZZD370   0.0000
    42 HAO        -26.3627   -14.3238    72.0542 H            1 ZZD370   0.0000
    43 HAI        -28.5184   -13.9187    71.1247 H            1 ZZD370   0.0000
    44 HAE        -29.0064   -11.8114    70.0938 H            1 ZZD370   0.0000
    45 HAJ        -27.3193   -10.1191    70.0038 H            1 ZZD370   0.0000
    46 HAP        -25.1621   -10.5289    70.9403 H            1 ZZD370   0.0000
    47 H21        -20.9577   -10.5006    70.0416 H            1 ZZD370   0.0000
@<TRIPOS>BOND
     1    1    2       1
     2    2    3       1
     3    2    4       1
     4    3    7       1
     5    4    5      ar
     6    4    6      ar
     7    7   14       1
     8    8    9      ar
     9    8   13      ar
    10    9   10      ar
    11   10   11      ar
    12   11   12      ar
    13   12   13      ar
    14   13   14       1
    15   14   15       1
    16   14   21       1
    17   15   16      ar
    18   15   20      ar
    19   16   17      ar
    20   17   18      ar
    21   18   19      ar
    22   19   20      ar
    23   21   22      ar
    24   21   26      ar
    25   22   23      ar
    26   23   24      ar
    27   24   25      ar
    28   25   26      ar
    29    1   27       1
    30    1   28       1
    31    2   29       1
    32    3   30       1
    33    3   31       1
    34    1   47       1
    35    8   32       1
    36    9   33       1
    37   10   34       1
    38   11   35       1
    39   12   36       1
    40   16   37       1
    41   17   38       1
    42   18   39       1
    43   19   40       1
    44   20   41       1
    45   22   42       1
    46   23   43       1
    47   24   44       1
    48   25   45       1
    49   26   46       1
@<TRIPOS>SUBSTRUCTURE
     1 ZZD370      1 GROUP             4 A     ZZD     0 **** ZZD A 370
