3ken_ZZD_1_ligand
  -OEChem-08111718373D

 47 49  0     1  0  0  0  0  0999 V2000
  -25.0563  -11.4630   77.3831 H   0  0  0  0  0  0  0  0  0  0  0  0
  -22.0426  -17.4150   71.1384 H   0  0  0  0  0  0  0  0  0  0  0  0
  -29.0064  -11.8114   70.0938 H   0  0  0  0  0  0  0  0  0  0  0  0
  -25.8947  -13.5150   76.4940 H   0  0  0  0  0  0  0  0  0  0  0  0
  -23.8048   -9.9751   75.9826 H   0  0  0  0  0  0  0  0  0  0  0  0
  -23.0526  -16.1059   69.4068 H   0  0  0  0  0  0  0  0  0  0  0  0
  -22.0301  -16.6010   73.3892 H   0  0  0  0  0  0  0  0  0  0  0  0
  -28.5184  -13.9187   71.1247 H   0  0  0  0  0  0  0  0  0  0  0  0
  -27.3193  -10.1191   70.0038 H   0  0  0  0  0  0  0  0  0  0  0  0
  -25.4838  -14.0821   74.2085 H   0  0  0  0  0  0  0  0  0  0  0  0
  -23.4010  -10.5487   73.7037 H   0  0  0  0  0  0  0  0  0  0  0  0
  -24.0482  -14.0024   69.9275 H   0  0  0  0  0  0  0  0  0  0  0  0
  -23.0293  -14.4976   73.9028 H   0  0  0  0  0  0  0  0  0  0  0  0
  -26.3627  -14.3238   72.0542 H   0  0  0  0  0  0  0  0  0  0  0  0
  -25.1621  -10.5289   70.9403 H   0  0  0  0  0  0  0  0  0  0  0  0
  -21.5005  -12.0068   73.2172 H   0  0  0  0  0  0  0  0  0  0  0  0
  -21.1309  -12.7882   71.8317 H   0  0  0  0  0  0  0  0  0  0  0  0
  -20.6076   -9.9880   72.2821 H   0  0  0  0  0  0  0  0  0  0  0  0
  -19.8257  -11.6744   70.1269 H   0  0  0  0  0  0  0  0  0  0  0  0
  -19.3925  -10.1087   70.2928 H   0  0  0  0  0  0  0  0  0  0  0  0
  -24.8850  -11.7010   76.4270 C   0  0  0  0  0  0  0  0  0  0  0  0
  -22.4590  -16.5320   71.3550 C   0  0  0  0  0  0  0  0  0  0  0  0
  -28.1020  -11.9820   70.4850 C   0  0  0  0  0  0  0  0  0  0  0  0
  -25.3720  -12.8930   75.9110 C   0  0  0  0  0  0  0  0  0  0  0  0
  -24.1570  -10.8350   75.6130 C   0  0  0  0  0  0  0  0  0  0  0  0
  -23.0470  -15.7710   70.3490 C   0  0  0  0  0  0  0  0  0  0  0  0
  -22.4530  -16.0590   72.6630 C   0  0  0  0  0  0  0  0  0  0  0  0
  -27.8170  -13.2070   71.0850 C   0  0  0  0  0  0  0  0  0  0  0  0
  -27.1220  -11.0000   70.4340 C   0  0  0  0  0  0  0  0  0  0  0  0
  -25.1310  -13.2220   74.5770 C   0  0  0  0  0  0  0  0  0  0  0  0
  -23.9230  -11.1720   74.2860 C   0  0  0  0  0  0  0  0  0  0  0  0
  -23.6270  -14.5440   70.6550 C   0  0  0  0  0  0  0  0  0  0  0  0
  -23.0360  -14.8310   72.9600 C   0  0  0  0  0  0  0  0  0  0  0  0
  -26.5600  -13.4410   71.6280 C   0  0  0  0  0  0  0  0  0  0  0  0
  -25.8630  -11.2410   70.9820 C   0  0  0  0  0  0  0  0  0  0  0  0
  -24.4060  -12.3680   73.7540 C   0  0  0  0  0  0  0  0  0  0  0  0
  -23.6290  -14.0590   71.9630 C   0  0  0  0  0  0  0  0  0  0  0  0
  -25.5690  -12.4590   71.5860 C   0  0  0  0  0  0  0  0  0  0  0  0
  -19.0050  -11.2760   72.6200 C   0  0  0  0  0  0  0  0  0  0  0  0
  -21.4080  -11.9120   72.2260 C   0  0  2  0  0  0  0  0  0  0  0  0
  -20.3150  -10.8790   71.9350 C   0  0  2  0  0  0  0  0  0  0  0  0
  -24.2030  -12.6650   72.2580 C   0  0  1  0  0  0  0  0  0  0  0  0
  -20.1060  -10.7830   70.4830 N   0  3  0  0  0  0  0  0  0  0  0  0
  -18.0060  -11.4420   71.8880 O   0  5  0  0  0  0  0  0  0  0  0  0
  -19.0220  -11.3950   73.8650 O   0  0  0  0  0  0  0  0  0  0  0  0
  -23.0380  -11.4490   71.5300 S   0  0  0  0  0  0  0  0  0  0  0  0
  -20.9577  -10.5006   70.0416 H   0  0  0  0  0  0  0  0  0  0  0  0
  1 21  1  0  0  0  0
  2 22  1  0  0  0  0
  3 23  1  0  0  0  0
  4 24  1  0  0  0  0
  5 25  1  0  0  0  0
  6 26  1  0  0  0  0
  7 27  1  0  0  0  0
  8 28  1  0  0  0  0
  9 29  1  0  0  0  0
 10 30  1  0  0  0  0
 11 31  1  0  0  0  0
 12 32  1  0  0  0  0
 13 33  1  0  0  0  0
 14 34  1  0  0  0  0
 15 35  1  0  0  0  0
 16 40  1  0  0  0  0
 17 40  1  0  0  0  0
 18 41  1  0  0  0  0
 19 43  1  0  0  0  0
 20 43  1  0  0  0  0
 21 24  1  0  0  0  0
 21 25  2  0  0  0  0
 22 26  2  0  0  0  0
 22 27  1  0  0  0  0
 23 28  2  0  0  0  0
 23 29  1  0  0  0  0
 24 30  2  0  0  0  0
 25 31  1  0  0  0  0
 26 32  1  0  0  0  0
 27 33  2  0  0  0  0
 28 34  1  0  0  0  0
 29 35  2  0  0  0  0
 30 36  1  0  0  0  0
 31 36  2  0  0  0  0
 32 37  2  0  0  0  0
 33 37  1  0  0  0  0
 34 38  2  0  0  0  0
 35 38  1  0  0  0  0
 36 42  1  0  0  0  0
 37 42  1  0  0  0  0
 38 42  1  0  0  0  0
 39 41  1  0  0  0  0
 39 44  1  0  0  0  0
 39 45  2  0  0  0  0
 40 41  1  0  0  0  0
 40 46  1  0  0  0  0
 41 43  1  0  0  0  0
 42 46  1  0  0  0  0
 43 47  1  0  0  0  0
M  CHG  2  43   1  44  -1
M  END
> <scpdb_id>
3ken_1

$$$$
