#    Name: 43389
#    Modification time : Tue Aug  8 22:35:08 2017

@<TRIPOS>MOLECULE
43389
   24     0     9     0     0
SMALL
NO_CHARGES


@<TRIPOS>ATOM
      1 N          78.2550  -52.9300   26.1090 N.am      1 SEL1        0.0000 
      2 O          78.4740  -55.3290   25.4090 O.2       2 ALL2        0.0000 
      3 O          78.1420  -57.4210   24.4290 O.2       2 ALL2        0.0000 
      4 CA         78.3010  -59.4400   25.6750 C.3       3 GLL5        0.0000 
      5 CA         80.9980  -54.6540   26.8180 C.3       3 GLL5        0.0000 
      6 CA         82.1940  -54.4360   28.9010 C.3       3 GLL5        0.0000 
      7 N          79.4160  -51.1850   23.9900 N.am      4 SEP1        0.0000 
      8 O          79.3830  -53.8780   23.2590 O.2       5 ALP2        0.0000 
      9 O          77.7650  -56.9730   21.6910 O.2       5 ALP2        0.0000 
     10 CA         80.5810  -61.3270   22.7380 C.3       6 GLP5        0.0000 
     11 CA         76.3760  -62.3570   23.0980 C.3       6 GLP5        0.0000 
     12 CA         80.8700  -50.6340   25.9210 C.3       6 GLP5        0.0000 
     13 CA         82.5920  -55.0830   23.6360 C.3       6 GLP5        0.0000 
     14 CA         82.2120  -50.3700   28.0440 C.3       6 GLP5        0.0000 
     15 CA         80.3200  -62.4290   27.2800 C.3       6 GLP5        0.0000 
     16 N          78.8355  -52.0575   25.0495 N.am      7 SEC1        0.0000 
     17 O          78.9285  -54.6035   24.3340 O.2       8 ALC2        0.0000 
     18 O          77.9535  -57.1970   23.0600 O.2       8 ALC2        0.0000 
     19 CA         79.4410  -60.3835   24.2065 C.3       9 GLC5        0.0000 
     20 CA         77.3385  -60.8985   24.3865 C.3       9 GLC5        0.0000 
     21 CA         80.6333  -52.5690   26.5325 C.3       9 GLC5        0.0000 
     22 CA         82.0948  -54.8792   25.4045 C.3       9 GLC5        0.0000 
     23 CA         81.9041  -52.3596   28.4646 C.3       9 GLC5        0.0000 
     24 CA         79.3840  -60.7525   26.7647 C.3       9 GLC5        0.0000 
@<TRIPOS>BOND
@<TRIPOS>SUBSTRUCTURE
     1 SEL1        1 GROUP        1 Z    SEL  0     ROOT SEL Z 0
     2 ALL2        2 GROUP        1 Z    ALL  0     **** ALL Z 1
     3 GLL5        4 GROUP        1 Z    GLL  0     **** GLL Z 4
     4 SEP1        7 GROUP        1 Z    SEP  0     **** SEP Z 7
     5 ALP2        8 GROUP        1 Z    ALP  0     **** ALP Z 8
     6 GLP5       10 GROUP        1 Z    GLP  0     **** GLP Z 11
     7 SEC1       16 GROUP        1 Z    SEC  0     **** SEC Z 14
     8 ALC2       17 GROUP        1 Z    ALC  0     **** ALC Z 15
     9 GLC5       19 GROUP        1 Z    GLC  0     **** GLC Z 18
@<TRIPOS>SET

