#    Name: 9232
#    Modification time : Tue Aug  8 20:48:27 2017

@<TRIPOS>MOLECULE
9232
   58     0    15     0     0
SMALL
NO_CHARGES


@<TRIPOS>ATOM
      1 N          60.3990   -8.4330   58.4690 N.am      1 SEL1        0.0000 
      2 N          58.2970   -6.7650   59.0560 N.am      1 SEL1        0.0000 
      3 N          58.5520   -8.3160   60.0990 N.am      1 SEL1        0.0000 
      4 O          57.1040  -19.6850   52.0680 O.2       2 ALL2        0.0000 
      5 O          55.1570  -18.3910   51.5970 O.2       2 ALL2        0.0000 
      6 NZ         60.3990   -8.4330   58.4690 N.4       3 LYL3        0.0000 
      7 NZ         58.2970   -6.7650   59.0560 N.4       3 LYL3        0.0000 
      8 CA         66.8580  -14.4240   54.9170 C.3       4 GLL5        0.0000 
      9 CA         64.7860  -15.9480   54.8580 C.3       4 GLL5        0.0000 
     10 CA         64.8440  -18.6490   55.3530 C.3       4 GLL5        0.0000 
     11 CA         63.4210  -18.6220   55.1270 C.3       4 GLL5        0.0000 
     12 CA         60.1790  -13.7380   54.2840 C.3       4 GLL5        0.0000 
     13 CA         65.5510  -17.2200   55.2080 C.3       4 GLL5        0.0000 
     14 CA         59.2500  -14.1810   53.1400 C.3       4 GLL5        0.0000 
     15 CA         59.1800  -13.4610   55.4610 C.3       4 GLL5        0.0000 
     16 Zn         55.8570  -10.3100   57.2820 Zn        5 ZIL7        0.0000 
     17 Zn         58.5520   -8.3160   60.0990 Zn        5 ZIL7        0.0000 
     18 N          62.7180  -10.2880   59.5520 N.am      6 SEP1        0.0000 
     19 N          63.2140   -8.1070   57.9360 N.am      6 SEP1        0.0000 
     20 N          60.7000   -9.8770   61.4180 N.am      6 SEP1        0.0000 
     21 N          60.1050   -4.6500   57.8060 N.am      6 SEP1        0.0000 
     22 O          54.4110  -21.5200   51.5610 O.2       7 ALP2        0.0000 
     23 O          56.4650  -21.8480   50.8320 O.2       7 ALP2        0.0000 
     24 NZ         60.1050   -4.6500   57.8060 N.4       8 LYP3        0.0000 
     25 CA         65.2610  -13.4100   58.6570 C.3       9 GLP5        0.0000 
     26 CA         67.0440  -15.0540   51.2350 C.3       9 GLP5        0.0000 
     27 CA         68.7220  -20.6820   55.4550 C.3       9 GLP5        0.0000 
     28 CA         65.6190  -16.8280   58.9700 C.3       9 GLP5        0.0000 
     29 CA         63.4240  -22.6250   57.0020 C.3       9 GLP5        0.0000 
     30 CA         61.3320  -14.9190   58.1950 C.3       9 GLP5        0.0000 
     31 CA         61.5910  -21.2780   53.4820 C.3       9 GLP5        0.0000 
     32 CA         62.2630  -12.9080   50.8570 C.3       9 GLP5        0.0000 
     33 CA         60.9980  -13.6050   58.5120 C.3       9 GLP5        0.0000 
     34 Zn         54.0510  -11.9870   56.3670 Zn       10 ZIP7        0.0000 
     35 Zn         56.4610   -9.8250   61.0100 Zn       10 ZIP7        0.0000 
     36 N          61.5585   -9.3605   59.0105 N.am     11 SEC1        0.0000 
     37 N          61.8065   -8.2700   58.2025 N.am     11 SEC1        0.0000 
     38 N          60.5495   -9.1550   59.9435 N.am     11 SEC1        0.0000 
     39 N          59.2010   -5.7075   58.4310 N.am     11 SEC1        0.0000 
     40 N          59.6260   -9.0965   60.7585 N.am     11 SEC1        0.0000 
     41 O          55.7575  -20.6025   51.8145 O.2      12 ALC2        0.0000 
     42 O          56.7845  -20.7665   51.4500 O.2      12 ALC2        0.0000 
     43 O          54.7840  -19.9555   51.5790 O.2      12 ALC2        0.0000 
     44 NZ         60.2520   -6.5415   58.1375 N.4      13 LYC3        0.0000 
     45 NZ         59.2010   -5.7075   58.4310 N.4      13 LYC3        0.0000 
     46 CA         66.0595  -13.9170   56.7870 C.3      14 GLC5        0.0000 
     47 CA         66.9510  -14.7390   53.0760 C.3      14 GLC5        0.0000 
     48 CA         65.9150  -15.5010   53.0465 C.3      14 GLC5        0.0000 
     49 CA         66.7830  -19.6655   55.4040 C.3      14 GLC5        0.0000 
     50 CA         65.2315  -17.7385   57.1615 C.3      14 GLC5        0.0000 
     51 CA         63.4225  -20.6235   56.0645 C.3      14 GLC5        0.0000 
     52 CA         60.7555  -14.3285   56.2395 C.3      14 GLC5        0.0000 
     53 CA         65.3938  -16.7060   57.0015 C.3      14 GLC5        0.0000 
     54 CA         62.3233  -19.6148   54.2155 C.3      14 GLC5        0.0000 
     55 CA         60.9888  -13.4337   52.2845 C.3      14 GLC5        0.0000 
     56 CA         59.9218  -13.1943   57.0770 C.3      14 GLC5        0.0000 
     57 Zn         54.9540  -11.1485   56.8245 Zn       15 ZIC7        0.0000 
     58 Zn         57.5065   -9.0705   60.5545 Zn       15 ZIC7        0.0000 
@<TRIPOS>BOND
@<TRIPOS>SUBSTRUCTURE
     1 SEL1        1 GROUP        1 Z    SEL  0     ROOT SEL Z 0
     2 ALL2        4 GROUP        1 Z    ALL  0     **** ALL Z 1
     3 LYL3        6 GROUP        1 Z    LYL  0     **** LYL Z 2
     4 GLL5        8 GROUP        1 Z    GLL  0     **** GLL Z 4
     5 ZIL7       16 GROUP        1 Z    ZIL  0     **** ZIL Z 5
     6 SEP1       18 GROUP        1 Z    SEP  0     **** SEP Z 7
     7 ALP2       22 GROUP        1 Z    ALP  0     **** ALP Z 8
     8 LYP3       24 GROUP        1 Z    LYP  0     **** LYP Z 9
     9 GLP5       25 GROUP        1 Z    GLP  0     **** GLP Z 11
    10 ZIP7       34 GROUP        1 Z    ZIP  0     **** ZIP Z 12
    11 SEC1       36 GROUP        1 Z    SEC  0     **** SEC Z 14
    12 ALC2       41 GROUP        1 Z    ALC  0     **** ALC Z 15
    13 LYC3       44 GROUP        1 Z    LYC  0     **** LYC Z 16
    14 GLC5       46 GROUP        1 Z    GLC  0     **** GLC Z 18
    15 ZIC7       57 GROUP        1 Z    ZIC  0     **** ZIC Z 19
@<TRIPOS>SET

