1u0h_ONM_2_ligand
  -OEChem-08111718373D

 61 64  0     1  0  0  0  0  0999 V2000
   62.8934  -19.4685   55.1980 H   0  0  0  0  0  0  0  0  0  0  0  0
   65.3444  -19.4845   55.5798 H   0  0  0  0  0  0  0  0  0  0  0  0
   61.7021  -17.3017   54.6174 H   0  0  0  0  0  0  0  0  0  0  0  0
   66.5385  -17.1587   55.3534 H   0  0  0  0  0  0  0  0  0  0  0  0
   55.9256  -13.1854   53.4159 H   0  0  0  0  0  0  0  0  0  0  0  0
   60.6646  -12.9002   54.0343 H   0  0  0  0  0  0  0  0  0  0  0  0
   58.8409  -13.3837   52.6962 H   0  0  0  0  0  0  0  0  0  0  0  0
   59.6764  -13.7298   56.2864 H   0  0  0  0  0  0  0  0  0  0  0  0
   58.5502  -15.8757   53.9820 H   0  0  0  0  0  0  0  0  0  0  0  0
   67.0108  -13.4468   54.7693 H   0  0  0  0  0  0  0  0  0  0  0  0
   67.1419  -14.6694   55.8439 H   0  0  0  0  0  0  0  0  0  0  0  0
   67.3927  -14.9488   54.2547 H   0  0  0  0  0  0  0  0  0  0  0  0
   58.8666  -11.8419   56.7196 H   0  0  0  0  0  0  0  0  0  0  0  0
   57.5289  -12.2814   55.8924 H   0  0  0  0  0  0  0  0  0  0  0  0
   54.7009  -19.1731   51.1724 H   0  0  0  0  0  0  0  0  0  0  0  0
   56.6677  -20.4772   51.6412 H   0  0  0  0  0  0  0  0  0  0  0  0
   58.0241  -19.7669   52.4510 H   0  0  0  0  0  0  0  0  0  0  0  0
   64.8236  -13.9566   54.5138 H   0  0  0  0  0  0  0  0  0  0  0  0
   59.2596  -15.2641   51.4540 H   0  0  0  0  0  0  0  0  0  0  0  0
   63.4210  -18.6220   55.1270 C   0  0  0  0  0  0  0  0  0  0  0  0
   64.8440  -18.6490   55.3530 C   0  0  0  0  0  0  0  0  0  0  0  0
   62.6900  -17.2810   54.7710 C   0  0  0  0  0  0  0  0  0  0  0  0
   65.5510  -17.2200   55.2080 C   0  0  0  0  0  0  0  0  0  0  0  0
   55.8720  -14.1460   53.1430 C   0  0  0  0  0  0  0  0  0  0  0  0
   63.3740  -16.0280   54.6560 C   0  0  0  0  0  0  0  0  0  0  0  0
   55.1400  -15.9980   52.2910 C   0  0  0  0  0  0  0  0  0  0  0  0
   64.7860  -15.9480   54.8580 C   0  0  0  0  0  0  0  0  0  0  0  0
   56.4270  -16.2070   52.7980 C   0  0  0  0  0  0  0  0  0  0  0  0
   54.4970  -17.1280   51.6750 C   0  0  0  0  0  0  0  0  0  0  0  0
   56.4630  -18.5270   52.1260 C   0  0  0  0  0  0  0  0  0  0  0  0
   62.4940  -14.7910   54.3010 C   0  0  0  0  0  0  0  0  0  0  0  0
   60.1790  -13.7380   54.2840 C   0  0  1  0  0  0  0  0  0  0  0  0
   59.2500  -14.1810   53.1400 C   0  0  2  0  0  0  0  0  0  0  0  0
   59.1800  -13.4610   55.4610 C   0  0  1  0  0  0  0  0  0  0  0  0
   58.2050  -14.9390   53.9240 C   0  0  2  0  0  0  0  0  0  0  0  0
   66.8580  -14.4240   54.9170 C   0  0  0  0  0  0  0  0  0  0  0  0
   58.5110  -12.1060   55.8230 C   0  0  2  0  0  0  0  0  0  0  0  0
   54.8260  -14.7160   52.5200 N   0  0  0  0  0  0  0  0  0  0  0  0
   57.0540  -17.4410   52.7080 N   0  0  0  0  0  0  0  0  0  0  0  0
   55.1570  -18.3910   51.5970 N   0  0  0  0  0  0  0  0  0  0  0  0
   56.8360  -15.0630   53.3440 N   0  0  0  0  0  0  0  0  0  0  0  0
   57.1040  -19.6850   52.0680 N   0  0  0  0  0  0  0  0  0  0  0  0
   65.4120  -14.7320   54.7430 N   0  0  0  0  0  0  0  0  0  0  0  0
   58.2970   -6.7650   59.0560 O   0  5  0  0  0  0  0  0  0  0  0  0
   58.5520   -8.3160   60.0990 O   0  5  0  0  0  0  0  0  0  0  0  0
   56.1700  -10.7730   54.5040 O   0  5  0  0  0  0  0  0  0  0  0  0
   55.8860   -7.9400   57.7520 O   0  5  0  0  0  0  0  0  0  0  0  0
   53.3660  -17.0690   51.1950 O   0  0  0  0  0  0  0  0  0  0  0  0
   63.0890  -13.5840   53.7090 O   0  0  0  0  0  0  0  0  0  0  0  0
   60.3990   -8.4330   58.4690 O   0  0  0  0  0  0  0  0  0  0  0  0
   57.9050   -9.1960   53.3450 O   0  0  0  0  0  0  0  0  0  0  0  0
   55.8570  -10.3100   57.2820 O   0  0  0  0  0  0  0  0  0  0  0  0
   58.1570  -14.4640   55.3030 O   0  0  0  0  0  0  0  0  0  0  0  0
   59.9090  -15.0080   52.1700 O   0  0  0  0  0  0  0  0  0  0  0  0
   61.1410  -14.8310   54.5560 O   0  0  0  0  0  0  0  0  0  0  0  0
   58.6640  -10.9680   54.9710 O   0  0  0  0  0  0  0  0  0  0  0  0
   57.8650   -9.4620   58.4590 O   0  0  0  0  0  0  0  0  0  0  0  0
   57.5200   -8.7950   55.8940 O   0  0  0  0  0  0  0  0  0  0  0  0
   58.8200   -8.2330   58.6430 P   0  0  0  0  0  0  0  0  0  0  0  0
   57.4030   -9.9320   54.7210 P   0  0  2  0  0  0  0  0  0  0  0  0
   56.8660   -9.0140   57.3940 P   0  0  2  0  0  0  0  0  0  0  0  0
  1 20  1  0  0  0  0
  2 21  1  0  0  0  0
  3 22  1  0  0  0  0
  4 23  1  0  0  0  0
  5 24  1  0  0  0  0
  6 32  1  0  0  0  0
  7 33  1  0  0  0  0
  8 34  1  0  0  0  0
  9 35  1  0  0  0  0
 10 36  1  0  0  0  0
 11 36  1  0  0  0  0
 12 36  1  0  0  0  0
 13 37  1  0  0  0  0
 14 37  1  0  0  0  0
 15 40  1  0  0  0  0
 16 42  1  0  0  0  0
 17 42  1  0  0  0  0
 18 43  1  0  0  0  0
 19 54  1  0  0  0  0
 20 21  2  0  0  0  0
 20 22  1  0  0  0  0
 21 23  1  0  0  0  0
 22 25  2  0  0  0  0
 23 27  2  0  0  0  0
 24 38  2  0  0  0  0
 24 41  1  0  0  0  0
 25 27  1  0  0  0  0
 25 31  1  0  0  0  0
 26 28  2  0  0  0  0
 26 29  1  0  0  0  0
 26 38  1  0  0  0  0
 27 43  1  0  0  0  0
 28 39  1  0  0  0  0
 28 41  1  0  0  0  0
 29 40  1  0  0  0  0
 29 48  2  0  0  0  0
 30 39  2  0  0  0  0
 30 40  1  0  0  0  0
 30 42  1  0  0  0  0
 31 49  2  0  0  0  0
 31 55  1  0  0  0  0
 32 33  1  0  0  0  0
 32 34  1  0  0  0  0
 32 55  1  0  0  0  0
 33 35  1  0  0  0  0
 33 54  1  0  0  0  0
 34 37  1  0  0  0  0
 34 53  1  0  0  0  0
 35 41  1  0  0  0  0
 35 53  1  0  0  0  0
 36 43  1  0  0  0  0
 37 56  1  0  0  0  0
 44 59  1  0  0  0  0
 45 59  1  0  0  0  0
 46 60  1  0  0  0  0
 47 61  1  0  0  0  0
 50 59  2  0  0  0  0
 51 60  2  0  0  0  0
 52 61  2  0  0  0  0
 56 60  1  0  0  0  0
 57 59  1  0  0  0  0
 57 61  1  0  0  0  0
 58 60  1  0  0  0  0
 58 61  1  0  0  0  0
M  CHG  4  46  -1  47  -1  44  -1  45  -1
M  END
> <scpdb_id>
1u0h_2

$$$$
