@<TRIPOS>MOLECULE
1u0h_ONM_2_ligand
   61    64     1     0     0
SMALL
NO_CHARGES


@<TRIPOS>ATOM
     1 CA7         66.8580   -14.4240    54.9170 C.3          1 ONM100   0.0000
     2 NA1         65.4120   -14.7320    54.7430 N.pl3        1 ONM100   0.0000
     3 CA6         64.7860   -15.9480    54.8580 C.ar         1 ONM100   0.0000
     4 CA5         65.5510   -17.2200    55.2080 C.ar         1 ONM100   0.0000
     5 CA4         64.8440   -18.6490    55.3530 C.ar         1 ONM100   0.0000
     6 CA3         63.4210   -18.6220    55.1270 C.ar         1 ONM100   0.0000
     7 CA2         62.6900   -17.2810    54.7710 C.ar         1 ONM100   0.0000
     8 CA1         63.3740   -16.0280    54.6560 C.ar         1 ONM100   0.0000
     9 CA          62.4940   -14.7910    54.3010 C.2          1 ONM100   0.0000
    10 OA          63.0890   -13.5840    53.7090 O.2          1 ONM100   0.0000
    11 O3'         61.1410   -14.8310    54.5560 O.3          1 ONM100   0.0000
    12 C3'         60.1790   -13.7380    54.2840 C.3          1 ONM100   0.0000
    13 C2'         59.2500   -14.1810    53.1400 C.3          1 ONM100   0.0000
    14 O2'         59.9090   -15.0080    52.1700 O.3          1 ONM100   0.0000
    15 C4'         59.1800   -13.4610    55.4610 C.3          1 ONM100   0.0000
    16 C5'         58.5110   -12.1060    55.8230 C.3          1 ONM100   0.0000
    17 O5'         58.6640   -10.9680    54.9710 O.3          1 ONM100   0.0000
    18 PA          57.4030    -9.9320    54.7210 P.3          1 ONM100   0.0000
    19 O3A         57.9050    -9.1960    53.3450 O.co2        1 ONM100   0.0000
    20 O2A         56.1700   -10.7730    54.5040 O.co2        1 ONM100  -1.0000
    21 O1A         57.5200    -8.7950    55.8940 O.3          1 ONM100   0.0000
    22 PB          56.8660    -9.0140    57.3940 P.3          1 ONM100   0.0000
    23 O3B         55.8570   -10.3100    57.2820 O.co2        1 ONM100   0.0000
    24 O2B         55.8860    -7.9400    57.7520 O.co2        1 ONM100  -1.0000
    25 O1B         57.8650    -9.4620    58.4590 O.3          1 ONM100   0.0000
    26 PG          58.8200    -8.2330    58.6430 P.3          1 ONM100   0.0000
    27 O2G         60.3990    -8.4330    58.4690 O.co2        1 ONM100   0.0000
    28 O3G         58.2970    -6.7650    59.0560 O.co2        1 ONM100  -1.0000
    29 O1G         58.5520    -8.3160    60.0990 O.co2        1 ONM100  -1.0000
    30 O4'         58.1570   -14.4640    55.3030 O.3          1 ONM100   0.0000
    31 C1'         58.2050   -14.9390    53.9240 C.3          1 ONM100   0.0000
    32 N9          56.8360   -15.0630    53.3440 N.pl3        1 ONM100   0.0000
    33 C8          55.8720   -14.1460    53.1430 C.2          1 ONM100   0.0000
    34 N7          54.8260   -14.7160    52.5200 N.2          1 ONM100   0.0000
    35 C5          55.1400   -15.9980    52.2910 C.2          1 ONM100   0.0000
    36 C4          56.4270   -16.2070    52.7980 C.2          1 ONM100   0.0000
    37 N3          57.0540   -17.4410    52.7080 N.2          1 ONM100   0.0000
    38 C2          56.4630   -18.5270    52.1260 C.2          1 ONM100   0.0000
    39 N2          57.1040   -19.6850    52.0680 N.pl3        1 ONM100   0.0000
    40 N1          55.1570   -18.3910    51.5970 N.pl3        1 ONM100   0.0000
    41 C6          54.4970   -17.1280    51.6750 C.2          1 ONM100   0.0000
    42 O6          53.3660   -17.0690    51.1950 O.2          1 ONM100   0.0000
    43 HA71        67.0108   -13.4468    54.7693 H            1 ONM100   0.0000
    44 HA72        67.1419   -14.6694    55.8439 H            1 ONM100   0.0000
    45 HA73        67.3927   -14.9488    54.2547 H            1 ONM100   0.0000
    46 HA1         64.8236   -13.9566    54.5138 H            1 ONM100   0.0000
    47 HA5         66.5385   -17.1587    55.3534 H            1 ONM100   0.0000
    48 HA4         65.3444   -19.4845    55.5798 H            1 ONM100   0.0000
    49 HA3         62.8934   -19.4685    55.1980 H            1 ONM100   0.0000
    50 HA2         61.7021   -17.3017    54.6174 H            1 ONM100   0.0000
    51 H3'         60.6646   -12.9002    54.0343 H            1 ONM100   0.0000
    52 H2'         58.8409   -13.3837    52.6962 H            1 ONM100   0.0000
    53 H11         59.2596   -15.2641    51.4540 H            1 ONM100   0.0000
    54 H4'         59.6764   -13.7298    56.2864 H            1 ONM100   0.0000
    55 H5'1        58.8666   -11.8419    56.7196 H            1 ONM100   0.0000
    56 H5'2        57.5289   -12.2814    55.8924 H            1 ONM100   0.0000
    57 H1'         58.5502   -15.8757    53.9820 H            1 ONM100   0.0000
    58 H16         55.9256   -13.1854    53.4159 H            1 ONM100   0.0000
    59 H17         56.6677   -20.4772    51.6412 H            1 ONM100   0.0000
    60 H18         58.0241   -19.7669    52.4510 H            1 ONM100   0.0000
    61 H19         54.7009   -19.1731    51.1724 H            1 ONM100   0.0000
@<TRIPOS>BOND
     1    1    2       1
     2    2    3       1
     3    3    4      ar
     4    3    8      ar
     5    4    5      ar
     6    5    6      ar
     7    6    7      ar
     8    7    8      ar
     9    8    9       1
    10    9   10       2
    11    9   11       1
    12   11   12       1
    13   12   13       1
    14   12   15       1
    15   13   14       1
    16   13   31       1
    17   15   16       1
    18   15   30       1
    19   16   17       1
    20   17   18       1
    21   18   19      ar
    22   18   20      ar
    23   18   21       1
    24   21   22       1
    25   22   23      ar
    26   22   24      ar
    27   22   25       1
    28   41   42       2
    29   25   26       1
    30   26   27      ar
    31   26   28      ar
    32   26   29      ar
    33   30   31       1
    34   31   32       1
    35   32   33       1
    36   32   36       1
    37   33   34       2
    38   34   35       1
    39   35   36       2
    40   35   41       1
    41   36   37       1
    42   37   38       2
    43   38   39       1
    44   38   40       1
    45   40   41       1
    46    1   43       1
    47    1   44       1
    48    1   45       1
    49    2   46       1
    50    4   47       1
    51    5   48       1
    52    6   49       1
    53    7   50       1
    54   12   51       1
    55   13   52       1
    56   14   53       1
    57   15   54       1
    58   16   55       1
    59   16   56       1
    60   39   60       1
    61   39   59       1
    62   31   57       1
    63   33   58       1
    64   40   61       1
@<TRIPOS>SUBSTRUCTURE
     1 ONM100      1 GROUP             4 A     ONM     0 **** ONM A 100
