#    Name: 27435
#    Modification time : Wed Aug  9 00:39:45 2017

@<TRIPOS>MOLECULE
27435
   44     0    12     0     0
SMALL
NO_CHARGES


@<TRIPOS>ATOM
      1 N          75.9010   -9.6880   64.4060 N.am      1 SEL1        0.0000 
      2 O          74.3740   -8.6440   65.6180 O.2       2 ALL2        0.0000 
      3 CA         75.8460   -8.3240   70.3830 C.3       3 GLL5        0.0000 
      4 CA         75.7060  -13.9770   68.2580 C.3       3 GLL5        0.0000 
      5 CA         75.7870   -6.8220   61.3640 C.3       3 GLL5        0.0000 
      6 CA         74.4450   -9.9840   69.1310 C.3       3 GLL5        0.0000 
      7 CA         76.2470   -8.5480   72.7390 C.3       3 GLL5        0.0000 
      8 CA         76.6310  -12.9470   68.2430 C.3       3 GLL5        0.0000 
      9 CA         74.9010  -10.1690   71.5910 C.3       3 GLL5        0.0000 
     10 CA         76.2290  -11.6530   68.5250 C.3       3 GLL5        0.0000 
     11 CA         75.4820   -9.7030   72.7580 C.3       3 GLL5        0.0000 
     12 CA         74.3800  -13.7140   68.5570 C.3       3 GLL5        0.0000 
     13 CA         76.4250   -7.8590   71.5520 C.3       3 GLL5        0.0000 
     14 CZ         75.6633   -9.0135   71.5712 C.ar      4 PHL6        0.0000 
     15 N          78.1940   -9.6850   65.9230 N.am      5 SEP1        0.0000 
     16 O          71.1860   -7.8360   64.9070 O.2       6 ALP2        0.0000 
     17 O          72.6100   -6.6820   66.1300 O.2       6 ALP2        0.0000 
     18 CA         78.9290   -7.0840   69.8620 C.3       7 GLP5        0.0000 
     19 CA         78.6530  -16.9200   69.0830 C.3       7 GLP5        0.0000 
     20 CA         74.5910   -3.0630   59.5310 C.3       7 GLP5        0.0000 
     21 CA         70.9540  -10.6360   71.3630 C.3       7 GLP5        0.0000 
     22 CA         79.1200  -11.4780   70.9580 C.3       7 GLP5        0.0000 
     23 CA         78.1690  -12.0140   65.3850 C.3       7 GLP5        0.0000 
     24 CA         71.6970  -10.5870   72.5120 C.3       7 GLP5        0.0000 
     25 CA         78.4340  -12.8070   71.9430 C.3       7 GLP5        0.0000 
     26 CA         73.7450  -14.6530   71.9760 C.3       7 GLP5        0.0000 
     27 CA         74.0740   -5.7090   72.4400 C.3       7 GLP5        0.0000 
     28 CZ         73.1386   -6.4504   70.0634 C.ar      8 PHP6        0.0000 
     29 N          77.0475   -9.6865   65.1645 N.am      9 SEC1        0.0000 
     30 O          72.7800   -8.2400   65.2625 O.2      10 ALC2        0.0000 
     31 O          73.4920   -7.6630   65.8740 O.2      10 ALC2        0.0000 
     32 CA         77.3875   -7.7040   70.1225 C.3      11 GLC5        0.0000 
     33 CA         77.1795  -15.4485   68.6705 C.3      11 GLC5        0.0000 
     34 CA         75.1890   -4.9425   60.4475 C.3      11 GLC5        0.0000 
     35 CA         72.6995  -10.3100   70.2470 C.3      11 GLC5        0.0000 
     36 CA         77.6835  -10.0130   71.8485 C.3      11 GLC5        0.0000 
     37 CA         77.5880   -7.8160   71.3005 C.3      11 GLC5        0.0000 
     38 CA         77.4000  -12.4805   66.8140 C.3      11 GLC5        0.0000 
     39 CA         73.2990  -10.3780   72.0515 C.3      11 GLC5        0.0000 
     40 CA         77.7750  -11.8890   69.6710 C.3      11 GLC5        0.0000 
     41 CA         76.8127  -11.3715   72.0588 C.3      11 GLC5        0.0000 
     42 CA         74.3438  -14.0876   70.2267 C.3      11 GLC5        0.0000 
     43 CA         74.9598   -7.2885   72.1880 C.3      11 GLC5        0.0000 
     44 CZ         74.4010   -7.7319   70.8173 C.ar     12 PHC6        0.0000 
@<TRIPOS>BOND
@<TRIPOS>SUBSTRUCTURE
     1 SEL1        1 GROUP        1 Z    SEL  0     ROOT SEL Z 0
     2 ALL2        2 GROUP        1 Z    ALL  0     **** ALL Z 1
     3 GLL5        3 GROUP        1 Z    GLL  0     **** GLL Z 4
     4 PHL6       14 GROUP        1 Z    PHL  0     **** PHL Z 6
     5 SEP1       15 GROUP        1 Z    SEP  0     **** SEP Z 7
     6 ALP2       16 GROUP        1 Z    ALP  0     **** ALP Z 8
     7 GLP5       18 GROUP        1 Z    GLP  0     **** GLP Z 11
     8 PHP6       28 GROUP        1 Z    PHP  0     **** PHP Z 13
     9 SEC1       29 GROUP        1 Z    SEC  0     **** SEC Z 14
    10 ALC2       30 GROUP        1 Z    ALC  0     **** ALC Z 15
    11 GLC5       32 GROUP        1 Z    GLC  0     **** GLC Z 18
    12 PHC6       44 GROUP        1 Z    PHC  0     **** PHC Z 20
@<TRIPOS>SET

