@<TRIPOS>MOLECULE
3i1y_33N_1_ligand
   44    46     1     0     0
SMALL
NO_CHARGES


@<TRIPOS>ATOM
     1 C4          74.7820    -9.0290    67.9830 C.3          1 33N999   0.0000
     2 C5          76.2290   -11.6530    68.5250 C.ar         1 33N999   0.0000
     3 C6          73.9780   -12.4210    68.8370 C.ar         1 33N999   0.0000
     4 C7          74.9010   -10.1690    71.5910 C.ar         1 33N999   0.0000
     5 C8          75.8460    -8.3240    70.3830 C.ar         1 33N999   0.0000
     6 C10         76.6310   -12.9470    68.2430 C.ar         1 33N999   0.0000
     7 C13         76.4250    -7.8590    71.5520 C.ar         1 33N999   0.0000
     8 C15         75.7060   -13.9770    68.2580 C.ar         1 33N999   0.0000
     9 C17         75.1510    -8.7410    64.5260 C.2          1 33N999   0.0000
    10 C20         75.8790    -7.8160    62.3210 C.ar         1 33N999   0.0000
    11 C21         74.2510    -6.5970    63.6110 C.ar         1 33N999   0.0000
    12 C22         75.7870    -6.8220    61.3640 C.ar         1 33N999   0.0000
    13 C24         74.9290    -5.7580    61.5770 C.ar         1 33N999   0.0000
    14 O19         75.9010    -9.6880    64.4060 O.2          1 33N999   0.0000
    15 C18         75.0940    -7.7010    63.4750 C.ar         1 33N999   0.0000
    16 N23         74.1970    -5.6750    62.6720 N.ar         1 33N999   0.0000
    17 N14         74.3740    -8.6440    65.6180 N.am         1 33N999   0.0000
    18 C9          74.4340    -9.6820    66.6460 C.3          1 33N999   0.0000
    19 C1          74.4450    -9.9840    69.1310 C.3          1 33N999   0.0000
    20 C3          75.0790    -9.4780    70.4040 C.ar         1 33N999   0.0000
    21 C16         76.2470    -8.5480    72.7390 C.ar         1 33N999   0.0000
    22 C12         75.4820    -9.7030    72.7580 C.ar         1 33N999   0.0000
    23 C2          74.9020   -11.3890    68.8200 C.ar         1 33N999   0.0000
    24 C11         74.3800   -13.7140    68.5570 C.ar         1 33N999   0.0000
    25 H1          74.2550    -8.1856    68.0875 H            1 33N999   0.0000
    26 H2          75.7589    -8.8164    68.0041 H            1 33N999   0.0000
    27 H3          76.8968   -10.9087    68.5157 H            1 33N999   0.0000
    28 H4          73.0200   -12.2308    69.0518 H            1 33N999   0.0000
    29 H5          74.3525   -11.0050    71.6051 H            1 33N999   0.0000
    30 H6          75.9812    -7.8279    69.5253 H            1 33N999   0.0000
    31 H7          77.5889   -13.1378    68.0286 H            1 33N999   0.0000
    32 H8          76.9734    -7.0229    71.5384 H            1 33N999   0.0000
    33 H9          75.9959   -14.9118    68.0527 H            1 33N999   0.0000
    34 H10         76.4904    -8.5968    62.1923 H            1 33N999   0.0000
    35 H11         73.6829    -6.5052    64.4288 H            1 33N999   0.0000
    36 H12         76.3340    -6.8717    60.5283 H            1 33N999   0.0000
    37 H13         74.8621    -5.0371    60.8872 H            1 33N999   0.0000
    38 H14         73.7569    -7.8647    65.7272 H            1 33N999   0.0000
    39 H15         73.5469   -10.1384    66.7154 H            1 33N999   0.0000
    40 H16         75.1361   -10.3526    66.4063 H            1 33N999   0.0000
    41 H17         73.4526    -9.9938    69.2537 H            1 33N999   0.0000
    42 H18         76.6696    -8.2129    73.5811 H            1 33N999   0.0000
    43 H19         75.3494   -10.2004    73.6153 H            1 33N999   0.0000
    44 H20         73.7131   -14.4590    68.5705 H            1 33N999   0.0000
@<TRIPOS>BOND
     1    1   18       1
     2    1   19       1
     3    2    6      ar
     4    2   23      ar
     5    3   23      ar
     6    3   24      ar
     7    4   20      ar
     8    4   22      ar
     9    5    7      ar
    10    5   20      ar
    11    6    8      ar
    12    7   21      ar
    13    8   24      ar
    14    9   14       2
    15    9   15       1
    16    9   17      am
    17   10   12      ar
    18   10   15      ar
    19   11   15      ar
    20   11   16      ar
    21   12   13      ar
    22   13   16      ar
    23   17   18       1
    24   19   20       1
    25   19   23       1
    26   21   22      ar
    27    1   25       1
    28    1   26       1
    29    2   27       1
    30    3   28       1
    31    4   29       1
    32    5   30       1
    33    6   31       1
    34    7   32       1
    35    8   33       1
    36   10   34       1
    37   11   35       1
    38   12   36       1
    39   13   37       1
    40   17   38       1
    41   18   39       1
    42   18   40       1
    43   19   41       1
    44   21   42       1
    45   22   43       1
    46   24   44       1
@<TRIPOS>SUBSTRUCTURE
     1 33N999      1 GROUP             4 A     33N     0 **** 33N A 999
