3i1y_33N_1_ligand
  -OEChem-08111718373D

 44 46  0     1  0  0  0  0  0999 V2000
   75.9959  -14.9118   68.0527 H   0  0  0  0  0  0  0  0  0  0  0  0
   76.6696   -8.2129   73.5811 H   0  0  0  0  0  0  0  0  0  0  0  0
   77.5889  -13.1378   68.0286 H   0  0  0  0  0  0  0  0  0  0  0  0
   73.7131  -14.4590   68.5705 H   0  0  0  0  0  0  0  0  0  0  0  0
   76.9734   -7.0229   71.5384 H   0  0  0  0  0  0  0  0  0  0  0  0
   75.3494  -10.2004   73.6153 H   0  0  0  0  0  0  0  0  0  0  0  0
   76.3340   -6.8717   60.5283 H   0  0  0  0  0  0  0  0  0  0  0  0
   76.4904   -8.5968   62.1923 H   0  0  0  0  0  0  0  0  0  0  0  0
   76.8968  -10.9087   68.5157 H   0  0  0  0  0  0  0  0  0  0  0  0
   73.0200  -12.2308   69.0518 H   0  0  0  0  0  0  0  0  0  0  0  0
   75.9812   -7.8279   69.5253 H   0  0  0  0  0  0  0  0  0  0  0  0
   74.3525  -11.0050   71.6051 H   0  0  0  0  0  0  0  0  0  0  0  0
   74.8621   -5.0371   60.8872 H   0  0  0  0  0  0  0  0  0  0  0  0
   73.6829   -6.5052   64.4288 H   0  0  0  0  0  0  0  0  0  0  0  0
   74.2550   -8.1856   68.0875 H   0  0  0  0  0  0  0  0  0  0  0  0
   75.7589   -8.8164   68.0041 H   0  0  0  0  0  0  0  0  0  0  0  0
   73.5469  -10.1384   66.7154 H   0  0  0  0  0  0  0  0  0  0  0  0
   75.1361  -10.3526   66.4063 H   0  0  0  0  0  0  0  0  0  0  0  0
   73.4526   -9.9938   69.2537 H   0  0  0  0  0  0  0  0  0  0  0  0
   73.7569   -7.8647   65.7272 H   0  0  0  0  0  0  0  0  0  0  0  0
   75.7060  -13.9770   68.2580 C   0  0  0  0  0  0  0  0  0  0  0  0
   76.2470   -8.5480   72.7390 C   0  0  0  0  0  0  0  0  0  0  0  0
   76.6310  -12.9470   68.2430 C   0  0  0  0  0  0  0  0  0  0  0  0
   74.3800  -13.7140   68.5570 C   0  0  0  0  0  0  0  0  0  0  0  0
   76.4250   -7.8590   71.5520 C   0  0  0  0  0  0  0  0  0  0  0  0
   75.4820   -9.7030   72.7580 C   0  0  0  0  0  0  0  0  0  0  0  0
   75.7870   -6.8220   61.3640 C   0  0  0  0  0  0  0  0  0  0  0  0
   75.8790   -7.8160   62.3210 C   0  0  0  0  0  0  0  0  0  0  0  0
   76.2290  -11.6530   68.5250 C   0  0  0  0  0  0  0  0  0  0  0  0
   73.9780  -12.4210   68.8370 C   0  0  0  0  0  0  0  0  0  0  0  0
   75.8460   -8.3240   70.3830 C   0  0  0  0  0  0  0  0  0  0  0  0
   74.9010  -10.1690   71.5910 C   0  0  0  0  0  0  0  0  0  0  0  0
   74.9290   -5.7580   61.5770 C   0  0  0  0  0  0  0  0  0  0  0  0
   74.2510   -6.5970   63.6110 C   0  0  0  0  0  0  0  0  0  0  0  0
   75.0940   -7.7010   63.4750 C   0  0  0  0  0  0  0  0  0  0  0  0
   74.9020  -11.3890   68.8200 C   0  0  0  0  0  0  0  0  0  0  0  0
   75.0790   -9.4780   70.4040 C   0  0  0  0  0  0  0  0  0  0  0  0
   75.1510   -8.7410   64.5260 C   0  0  0  0  0  0  0  0  0  0  0  0
   74.7820   -9.0290   67.9830 C   0  0  2  0  0  0  0  0  0  0  0  0
   74.4340   -9.6820   66.6460 C   0  0  2  0  0  0  0  0  0  0  0  0
   74.4450   -9.9840   69.1310 C   0  0  1  0  0  0  0  0  0  0  0  0
   74.1970   -5.6750   62.6720 N   0  0  0  0  0  0  0  0  0  0  0  0
   74.3740   -8.6440   65.6180 N   0  0  0  0  0  0  0  0  0  0  0  0
   75.9010   -9.6880   64.4060 O   0  0  0  0  0  0  0  0  0  0  0  0
  1 21  1  0  0  0  0
  2 22  1  0  0  0  0
  3 23  1  0  0  0  0
  4 24  1  0  0  0  0
  5 25  1  0  0  0  0
  6 26  1  0  0  0  0
  7 27  1  0  0  0  0
  8 28  1  0  0  0  0
  9 29  1  0  0  0  0
 10 30  1  0  0  0  0
 11 31  1  0  0  0  0
 12 32  1  0  0  0  0
 13 33  1  0  0  0  0
 14 34  1  0  0  0  0
 15 39  1  0  0  0  0
 16 39  1  0  0  0  0
 17 40  1  0  0  0  0
 18 40  1  0  0  0  0
 19 41  1  0  0  0  0
 20 43  1  0  0  0  0
 21 23  1  0  0  0  0
 21 24  2  0  0  0  0
 22 25  1  0  0  0  0
 22 26  2  0  0  0  0
 23 29  2  0  0  0  0
 24 30  1  0  0  0  0
 25 31  2  0  0  0  0
 26 32  1  0  0  0  0
 27 28  2  0  0  0  0
 27 33  1  0  0  0  0
 28 35  1  0  0  0  0
 29 36  1  0  0  0  0
 30 36  2  0  0  0  0
 31 37  1  0  0  0  0
 32 37  2  0  0  0  0
 33 42  2  0  0  0  0
 34 35  2  0  0  0  0
 34 42  1  0  0  0  0
 35 38  1  0  0  0  0
 36 41  1  0  0  0  0
 37 41  1  0  0  0  0
 38 43  1  0  0  0  0
 38 44  2  0  0  0  0
 39 40  1  0  0  0  0
 39 41  1  0  0  0  0
 40 43  1  0  0  0  0
M  END
> <scpdb_id>
3i1y_1

$$$$
