#    Name: 2301
#    Modification time : Tue Aug  8 19:25:42 2017

@<TRIPOS>MOLECULE
2301
   48     0    15     0     0
SMALL
NO_CHARGES


@<TRIPOS>ATOM
      1 N          14.1850   -2.9580   18.4350 N.am      1 SEL1        0.0000 
      2 N          15.3840   -5.4570   12.2380 N.am      1 SEL1        0.0000 
      3 N          15.8400   -6.2770   14.2380 N.am      1 SEL1        0.0000 
      4 N          14.7720   -5.0250   17.8170 N.am      1 SEL1        0.0000 
      5 O          14.3510   -1.8980   16.0370 O.2       2 ALL2        0.0000 
      6 NZ         14.1850   -2.9580   18.4350 N.4       3 LYL3        0.0000 
      7 NZ         14.7720   -5.0250   17.8170 N.4       3 LYL3        0.0000 
      8 OD1        14.3510   -1.8980   16.0370 O.co2     4 ASL4        0.0000 
      9 CA         19.1920   -3.1290   15.5420 C.3       5 GLL5        0.0000 
     10 CA         16.0730   -3.9080   13.8710 C.3       5 GLL5        0.0000 
     11 CA         16.6900   -2.3860   15.7120 C.3       5 GLL5        0.0000 
     12 N          12.9250   -4.5630   20.6400 N.am      6 SEP1        0.0000 
     13 N          15.1150   -5.1770   20.8440 N.am      6 SEP1        0.0000 
     14 N          11.4310   -1.7460   18.9700 N.am      6 SEP1        0.0000 
     15 N          13.6410   -7.3340   11.6550 N.am      6 SEP1        0.0000 
     16 N          13.8770   -8.6590   14.1820 N.am      6 SEP1        0.0000 
     17 N          12.7680   -6.6830   18.1660 N.am      6 SEP1        0.0000 
     18 N          14.9110   -7.7890   16.6920 N.am      6 SEP1        0.0000 
     19 O          12.9710   -2.1360   13.2450 O.2       7 ALP2        0.0000 
     20 O          13.8760    0.4730   17.4060 O.2       7 ALP2        0.0000 
     21 NZ         13.9040   -5.0690   21.3630 N.4       8 LYP3        0.0000 
     22 OD1        11.9810   -3.9290   14.0950 O.co2     9 ASP4        0.0000 
     23 OD1        12.9710   -2.1360   13.2450 O.co2     9 ASP4        0.0000 
     24 CA         19.1120   -0.5660   17.7770 C.3      10 GLP5        0.0000 
     25 CA         19.4350   -4.9230   12.2280 C.3      10 GLP5        0.0000 
     26 CA         15.9890    0.2950   12.3700 C.3      10 GLP5        0.0000 
     27 CA         18.1410    0.3670   17.5820 C.3      10 GLP5        0.0000 
     28 N          13.5550   -3.7605   19.5375 N.am     11 SEC1        0.0000 
     29 N          14.6500   -4.0675   19.6395 N.am     11 SEC1        0.0000 
     30 N          12.8080   -2.3520   18.7025 N.am     11 SEC1        0.0000 
     31 N          14.5125   -6.3955   11.9465 N.am     11 SEC1        0.0000 
     32 N          14.8585   -7.4680   14.2100 N.am     11 SEC1        0.0000 
     33 N          13.7700   -5.8540   17.9915 N.am     11 SEC1        0.0000 
     34 N          14.8415   -6.4070   17.2545 N.am     11 SEC1        0.0000 
     35 N          13.8485   -4.7940   19.2285 N.am     11 SEC1        0.0000 
     36 N          14.9435   -5.1010   19.3305 N.am     11 SEC1        0.0000 
     37 O          13.6610   -2.0170   14.6410 O.2      12 ALC2        0.0000 
     38 O          14.1135   -0.7125   16.7215 O.2      12 ALC2        0.0000 
     39 NZ         14.0445   -4.0135   19.8990 N.4      13 LYC3        0.0000 
     40 NZ         14.3380   -5.0470   19.5900 N.4      13 LYC3        0.0000 
     41 OD1        13.1660   -2.9135   15.0660 O.co2    14 ASC4        0.0000 
     42 OD1        13.6610   -2.0170   14.6410 O.co2    14 ASC4        0.0000 
     43 CA         19.1520   -1.8475   16.6595 C.3      15 GLC5        0.0000 
     44 CA         19.3135   -4.0260   13.8850 C.3      15 GLC5        0.0000 
     45 CA         17.7540   -4.4155   13.0495 C.3      15 GLC5        0.0000 
     46 CA         16.0310   -1.8065   13.1205 C.3      15 GLC5        0.0000 
     47 CA         17.4155   -1.0095   16.6470 C.3      15 GLC5        0.0000 
     48 CA         16.3395   -1.0455   14.0410 C.3      15 GLC5        0.0000 
@<TRIPOS>BOND
@<TRIPOS>SUBSTRUCTURE
     1 SEL1        1 GROUP        1 Z    SEL  0     ROOT SEL Z 0
     2 ALL2        5 GROUP        1 Z    ALL  0     **** ALL Z 1
     3 LYL3        6 GROUP        1 Z    LYL  0     **** LYL Z 2
     4 ASL4        8 GROUP        1 Z    ASL  0     **** ASL Z 3
     5 GLL5        9 GROUP        1 Z    GLL  0     **** GLL Z 4
     6 SEP1       12 GROUP        1 Z    SEP  0     **** SEP Z 7
     7 ALP2       19 GROUP        1 Z    ALP  0     **** ALP Z 8
     8 LYP3       21 GROUP        1 Z    LYP  0     **** LYP Z 9
     9 ASP4       22 GROUP        1 Z    ASP  0     **** ASP Z 10
    10 GLP5       24 GROUP        1 Z    GLP  0     **** GLP Z 11
    11 SEC1       28 GROUP        1 Z    SEC  0     **** SEC Z 14
    12 ALC2       37 GROUP        1 Z    ALC  0     **** ALC Z 15
    13 LYC3       39 GROUP        1 Z    LYC  0     **** LYC Z 16
    14 ASC4       41 GROUP        1 Z    ASC  0     **** ASC Z 17
    15 GLC5       43 GROUP        1 Z    GLC  0     **** GLC Z 18
@<TRIPOS>SET

