1fw0_KAI_1_ligand
  -OEChem-08111718373D

 29 29  0     1  0  0  0  0  0999 V2000
   17.5179   -0.4788   14.2571 H   0  0  0  0  0  0  0  0  0  0  0  0
   19.1843   -0.8927   14.0291 H   0  0  0  0  0  0  0  0  0  0  0  0
   15.8330   -0.4333   16.1531 H   0  0  0  0  0  0  0  0  0  0  0  0
   15.5214   -0.9069   14.6217 H   0  0  0  0  0  0  0  0  0  0  0  0
   16.8329   -2.4130   16.7014 H   0  0  0  0  0  0  0  0  0  0  0  0
   13.8846   -3.7897   15.5759 H   0  0  0  0  0  0  0  0  0  0  0  0
   16.3837   -4.4379   15.9675 H   0  0  0  0  0  0  0  0  0  0  0  0
   18.8020   -3.8317   16.1371 H   0  0  0  0  0  0  0  0  0  0  0  0
   19.5405   -3.5551   14.7071 H   0  0  0  0  0  0  0  0  0  0  0  0
   19.9404   -2.6670   16.0178 H   0  0  0  0  0  0  0  0  0  0  0  0
   17.0143   -3.7129   13.5954 H   0  0  0  0  0  0  0  0  0  0  0  0
   15.4529   -3.2704   13.4140 H   0  0  0  0  0  0  0  0  0  0  0  0
   14.1001   -1.5600   16.9441 H   0  0  0  0  0  0  0  0  0  0  0  0
   18.2910   -1.0880   14.4340 C   0  0  0  0  0  0  0  0  0  0  0  0
   18.1350   -2.1320   15.1890 C   0  0  0  0  0  0  0  0  0  0  0  0
   14.5070   -3.8180   17.5860 C   0  0  0  0  0  0  0  0  0  0  0  0
   15.7190   -5.3410   13.4220 C   0  0  0  0  0  0  0  0  0  0  0  0
   15.6050   -1.2130   15.5700 C   0  0  1  0  0  0  0  0  0  0  0  0
   16.6900   -2.3860   15.7120 C   0  0  1  0  0  0  0  0  0  0  0  0
   14.6010   -3.3280   16.0990 C   0  0  2  0  0  0  0  0  0  0  0  0
   15.9500   -3.6860   15.4710 C   0  0  1  0  0  0  0  0  0  0  0  0
   19.1920   -3.1290   15.5420 C   0  0  0  0  0  0  0  0  0  0  0  0
   16.0730   -3.9080   13.8710 C   0  0  1  0  0  0  0  0  0  0  0  0
   14.3510   -1.8980   16.0370 N   0  3  2  0  0  0  0  0  0  0  0  0
   14.7720   -5.0250   17.8170 O   0  5  0  0  0  0  0  0  0  0  0  0
   15.8400   -6.2770   14.2380 O   0  5  0  0  0  0  0  0  0  0  0  0
   14.1850   -2.9580   18.4350 O   0  0  0  0  0  0  0  0  0  0  0  0
   15.3840   -5.4570   12.2380 O   0  0  0  0  0  0  0  0  0  0  0  0
   13.6069   -1.7134   15.3949 H   0  0  0  0  0  0  0  0  0  0  0  0
  1 14  1  0  0  0  0
  2 14  1  0  0  0  0
  3 18  1  0  0  0  0
  4 18  1  0  0  0  0
  5 19  1  0  0  0  0
  6 20  1  0  0  0  0
  7 21  1  0  0  0  0
  8 22  1  0  0  0  0
  9 22  1  0  0  0  0
 10 22  1  0  0  0  0
 11 23  1  0  0  0  0
 12 23  1  0  0  0  0
 13 24  1  0  0  0  0
 14 15  2  0  0  0  0
 15 19  1  0  0  0  0
 15 22  1  0  0  0  0
 16 20  1  0  0  0  0
 16 25  1  0  0  0  0
 16 27  2  0  0  0  0
 17 23  1  0  0  0  0
 17 26  1  0  0  0  0
 17 28  2  0  0  0  0
 18 19  1  0  0  0  0
 18 24  1  0  0  0  0
 19 21  1  0  0  0  0
 20 21  1  0  0  0  0
 20 24  1  0  0  0  0
 21 23  1  0  0  0  0
 24 29  1  0  0  0  0
M  CHG  3  24   1  26  -1  25  -1
M  END
> <scpdb_id>
1fw0_1

$$$$
