@<TRIPOS>MOLECULE
1fw0_KAI_1_ligand
   29    29     1     0     0
SMALL
NO_CHARGES


@<TRIPOS>ATOM
     1 N           14.3510    -1.8980    16.0370 N.4          1 KAI999   1.0000
     2 CD          15.6050    -1.2130    15.5700 C.3          1 KAI999   0.0000
     3 CD1         18.2910    -1.0880    14.4340 C.2          1 KAI999   0.0000
     4 CD2         19.1920    -3.1290    15.5420 C.3          1 KAI999   0.0000
     5 CA          14.6010    -3.3280    16.0990 C.3          1 KAI999   0.0000
     6 CB          15.9500    -3.6860    15.4710 C.3          1 KAI999   0.0000
     7 CB1         16.0730    -3.9080    13.8710 C.3          1 KAI999   0.0000
     8 CG          16.6900    -2.3860    15.7120 C.3          1 KAI999   0.0000
     9 CG1         15.7190    -5.3410    13.4220 C.2          1 KAI999   0.0000
    10 CG2         18.1350    -2.1320    15.1890 C.2          1 KAI999   0.0000
    11 C           14.5070    -3.8180    17.5860 C.2          1 KAI999   0.0000
    12 O           14.1850    -2.9580    18.4350 O.co2        1 KAI999   0.0000
    13 OD1         15.3840    -5.4570    12.2380 O.co2        1 KAI999   0.0000
    14 OD2         15.8400    -6.2770    14.2380 O.co2        1 KAI999  -1.0000
    15 OXT         14.7720    -5.0250    17.8170 O.co2        1 KAI999  -1.0000
    16 H1          13.6069    -1.7134    15.3949 H            1 KAI999   0.0000
    17 HD1         15.8330    -0.4333    16.1531 H            1 KAI999   0.0000
    18 HD2         15.5214    -0.9069    14.6217 H            1 KAI999   0.0000
    19 HD11        17.5179    -0.4788    14.2571 H            1 KAI999   0.0000
    20 HD12        19.1843    -0.8927    14.0291 H            1 KAI999   0.0000
    21 HD21        18.8020    -3.8317    16.1371 H            1 KAI999   0.0000
    22 HD22        19.5405    -3.5551    14.7071 H            1 KAI999   0.0000
    23 HD23        19.9404    -2.6670    16.0178 H            1 KAI999   0.0000
    24 HA          13.8846    -3.7897    15.5759 H            1 KAI999   0.0000
    25 HB          16.3837    -4.4379    15.9675 H            1 KAI999   0.0000
    26 HB11        17.0143    -3.7129    13.5954 H            1 KAI999   0.0000
    27 HB12        15.4529    -3.2704    13.4140 H            1 KAI999   0.0000
    28 HG          16.8329    -2.4130    16.7014 H            1 KAI999   0.0000
    29 H14         14.1001    -1.5600    16.9441 H            1 KAI999   0.0000
@<TRIPOS>BOND
     1    1    2       1
     2    1    5       1
     3    2    8       1
     4    3   10       2
     5    4   10       1
     6    5    6       1
     7    5   11       1
     8    6    7       1
     9    6    8       1
    10    7    9       1
    11    8   10       1
    12    9   13      ar
    13    9   14      ar
    14   11   12      ar
    15   11   15      ar
    16    1   16       1
    17    2   17       1
    18    2   18       1
    19    3   19       1
    20    3   20       1
    21    4   21       1
    22    4   22       1
    23    4   23       1
    24    5   24       1
    25    6   25       1
    26    7   26       1
    27    7   27       1
    28    8   28       1
    29    1   29       1
@<TRIPOS>SUBSTRUCTURE
     1 KAI999      1 GROUP             4 A     KAI     0 **** KAI A 999
