#    Name: 49151
#    Modification time : Tue Aug  8 19:25:48 2017

@<TRIPOS>MOLECULE
49151
   34     0     9     0     0
SMALL
NO_CHARGES


@<TRIPOS>ATOM
      1 N          -8.1520   81.8010   87.0780 N.am      1 SEL1        0.0000 
      2 N         -10.7260   82.0450   83.1700 N.am      1 SEL1        0.0000 
      3 N          -8.4470   77.5220   85.8380 N.am      1 SEL1        0.0000 
      4 O          -3.7900   82.6210   86.2170 O.2       2 ALL2        0.0000 
      5 O         -10.7260   82.0450   83.1700 O.2       2 ALL2        0.0000 
      6 O         -11.8140   79.6340   83.1740 O.2       2 ALL2        0.0000 
      7 CA         -9.8750   81.0260   83.6400 C.3       3 GLL5        0.0000 
      8 CA        -10.3980   79.6130   83.3460 C.3       3 GLL5        0.0000 
      9 CA         -8.7680   78.0320   84.5510 C.3       3 GLL5        0.0000 
     10 N         -10.4450   81.8440   88.5070 N.am      4 SEP1        0.0000 
     11 N          -9.5790   83.3130   80.6950 N.am      4 SEP1        0.0000 
     12 N          -7.8970   75.0120   85.6420 N.am      4 SEP1        0.0000 
     13 O          -4.0300   82.7130   89.5790 O.2       5 ALP2        0.0000 
     14 O         -12.5660   82.2160   81.3900 O.2       5 ALP2        0.0000 
     15 O         -12.6950   80.1110   80.8310 O.2       5 ALP2        0.0000 
     16 CA         -9.7060   85.0990   82.9730 C.3       6 GLP5        0.0000 
     17 CA         -7.9880   80.7210   80.3750 C.3       6 GLP5        0.0000 
     18 CA        -12.0750   75.8060   82.5250 C.3       6 GLP5        0.0000 
     19 CA         -7.7340   78.9690   80.6980 C.3       6 GLP5        0.0000 
     20 CA         -5.0810   78.2230   85.0320 C.3       6 GLP5        0.0000 
     21 CA        -10.6690   75.0790   83.3800 C.3       6 GLP5        0.0000 
     22 N          -9.2985   81.8225   87.7925 N.am      7 SEC1        0.0000 
     23 N         -10.1525   82.6790   81.9325 N.am      7 SEC1        0.0000 
     24 N          -8.1720   76.2670   85.7400 N.am      7 SEC1        0.0000 
     25 O          -3.9100   82.6670   87.8980 O.2       8 ALC2        0.0000 
     26 O         -11.6460   82.1305   82.2800 O.2       8 ALC2        0.0000 
     27 O         -12.2545   79.8725   82.0025 O.2       8 ALC2        0.0000 
     28 CA         -9.7905   83.0625   83.3065 C.3       9 GLC5        0.0000 
     29 CA         -8.9315   80.8735   82.0075 C.3       9 GLC5        0.0000 
     30 CA        -11.2365   77.7095   82.9355 C.3       9 GLC5        0.0000 
     31 CA         -9.0660   79.2910   82.0220 C.3       9 GLC5        0.0000 
     32 CA         -6.9245   78.1275   84.7915 C.3       9 GLC5        0.0000 
     33 CA         -8.2510   78.5005   82.6245 C.3       9 GLC5        0.0000 
     34 CA        -10.0388   76.7535   83.9762 C.3       9 GLC5        0.0000 
@<TRIPOS>BOND
@<TRIPOS>SUBSTRUCTURE
     1 SEL1        1 GROUP        1 Z    SEL  0     ROOT SEL Z 0
     2 ALL2        4 GROUP        1 Z    ALL  0     **** ALL Z 1
     3 GLL5        7 GROUP        1 Z    GLL  0     **** GLL Z 4
     4 SEP1       10 GROUP        1 Z    SEP  0     **** SEP Z 7
     5 ALP2       13 GROUP        1 Z    ALP  0     **** ALP Z 8
     6 GLP5       16 GROUP        1 Z    GLP  0     **** GLP Z 11
     7 SEC1       22 GROUP        1 Z    SEC  0     **** SEC Z 14
     8 ALC2       25 GROUP        1 Z    ALC  0     **** ALC Z 15
     9 GLC5       28 GROUP        1 Z    GLC  0     **** GLC Z 18
@<TRIPOS>SET

