@<TRIPOS>MOLECULE
4ts9_FMC_3_ligand
   32    34     1     0     0
SMALL
NO_CHARGES


@<TRIPOS>ATOM
     1 N1          -4.6360    82.0480    84.1020 N.ar         1 FMC302   0.0000
     2 C2          -5.6330    81.6740    83.2780 C.ar         1 FMC302   0.0000
     3 N3          -6.8950    81.4660    83.6930 N.ar         1 FMC302   0.0000
     4 C4          -7.2070    81.6360    85.0010 C.ar         1 FMC302   0.0000
     5 C5          -6.1870    82.0410    85.9750 C.ar         1 FMC302   0.0000
     6 C6          -4.8230    82.2460    85.4260 C.ar         1 FMC302   0.0000
     7 N6          -3.7900    82.6210    86.2170 N.pl3        1 FMC302   0.0000
     8 N7          -6.7820    82.1250    87.1860 N.pl3        1 FMC302   0.0000
     9 N8          -8.1520    81.8010    87.0780 N.2          1 FMC302   0.0000
    10 C9          -8.4640    81.5010    85.7850 C.2          1 FMC302   0.0000
    11 C1'         -9.7700    81.0820    85.1770 C.3          1 FMC302   0.0000
    12 C2'         -9.8750    81.0260    83.6400 C.3          1 FMC302   0.0000
    13 O2'        -10.7260    82.0450    83.1700 O.3          1 FMC302   0.0000
    14 C3'        -10.3980    79.6130    83.3460 C.3          1 FMC302   0.0000
    15 O3'        -11.8140    79.6340    83.1740 O.3          1 FMC302   0.0000
    16 C4'        -10.0490    78.8240    84.5940 C.3          1 FMC302   0.0000
    17 O4'         -9.9650    79.7740    85.6740 O.3          1 FMC302   0.0000
    18 C5'         -8.7680    78.0320    84.5510 C.3          1 FMC302   0.0000
    19 O5'         -8.4470    77.5220    85.8380 O.3          1 FMC302   0.0000
    20 H1          -5.4245    81.5444    82.3086 H            1 FMC302   0.0000
    21 H2          -3.9364    82.7655    87.1956 H            1 FMC302   0.0000
    22 H3          -2.8807    82.7534    85.8226 H            1 FMC302   0.0000
    23 H4          -6.3190    82.3796    88.0350 H            1 FMC302   0.0000
    24 H1'        -10.4953    81.6734    85.5294 H            1 FMC302   0.0000
    25 H2'         -8.9661    81.1369    83.2381 H            1 FMC302   0.0000
    26 H7         -11.1726    81.7441    82.3274 H            1 FMC302   0.0000
    27 H3'         -9.9469    79.2260    82.5418 H            1 FMC302   0.0000
    28 H9         -12.0304    79.7888    82.2100 H            1 FMC302   0.0000
    29 H4'        -10.8011    78.1941    84.7878 H            1 FMC302   0.0000
    30 H5'1        -8.0260    78.6253    84.2390 H            1 FMC302   0.0000
    31 H5'2        -8.8754    77.2691    83.9134 H            1 FMC302   0.0000
    32 H5'         -7.5587    77.8796    86.1262 H            1 FMC302   0.0000
@<TRIPOS>BOND
     1    1    2      ar
     2    1    6      ar
     3    2    3      ar
     4    3    4      ar
     5    4    5      ar
     6    4   10       1
     7    5    6      ar
     8    5    8       1
     9    6    7       1
    10    8    9       1
    11    9   10       2
    12   10   11       1
    13   11   12       1
    14   11   17       1
    15   12   13       1
    16   12   14       1
    17   14   15       1
    18   14   16       1
    19   16   17       1
    20   16   18       1
    21   18   19       1
    22    2   20       1
    23    7   21       1
    24    7   22       1
    25    8   23       1
    26   11   24       1
    27   12   25       1
    28   13   26       1
    29   14   27       1
    30   15   28       1
    31   16   29       1
    32   18   30       1
    33   18   31       1
    34   19   32       1
@<TRIPOS>SUBSTRUCTURE
     1 FMC302      1 GROUP             4 C     FMC     0 **** FMC C 302
