4ts9_FMC_3_ligand
  -OEChem-08111718373D

 32 34  0     1  0  0  0  0  0999 V2000
   -5.4245   81.5444   82.3086 H   0  0  0  0  0  0  0  0  0  0  0  0
  -10.4953   81.6734   85.5294 H   0  0  0  0  0  0  0  0  0  0  0  0
   -8.9661   81.1369   83.2381 H   0  0  0  0  0  0  0  0  0  0  0  0
   -9.9469   79.2260   82.5418 H   0  0  0  0  0  0  0  0  0  0  0  0
  -10.8011   78.1941   84.7878 H   0  0  0  0  0  0  0  0  0  0  0  0
   -8.0260   78.6253   84.2390 H   0  0  0  0  0  0  0  0  0  0  0  0
   -8.8754   77.2691   83.9134 H   0  0  0  0  0  0  0  0  0  0  0  0
   -6.3190   82.3796   88.0350 H   0  0  0  0  0  0  0  0  0  0  0  0
   -3.9364   82.7655   87.1956 H   0  0  0  0  0  0  0  0  0  0  0  0
   -2.8807   82.7534   85.8226 H   0  0  0  0  0  0  0  0  0  0  0  0
  -11.1726   81.7441   82.3274 H   0  0  0  0  0  0  0  0  0  0  0  0
  -12.0304   79.7888   82.2100 H   0  0  0  0  0  0  0  0  0  0  0  0
   -7.5587   77.8796   86.1262 H   0  0  0  0  0  0  0  0  0  0  0  0
   -5.6330   81.6740   83.2780 C   0  0  0  0  0  0  0  0  0  0  0  0
   -7.2070   81.6360   85.0010 C   0  0  0  0  0  0  0  0  0  0  0  0
   -6.1870   82.0410   85.9750 C   0  0  0  0  0  0  0  0  0  0  0  0
   -8.4640   81.5010   85.7850 C   0  0  0  0  0  0  0  0  0  0  0  0
   -4.8230   82.2460   85.4260 C   0  0  0  0  0  0  0  0  0  0  0  0
   -9.7700   81.0820   85.1770 C   0  0  1  0  0  0  0  0  0  0  0  0
   -9.8750   81.0260   83.6400 C   0  0  1  0  0  0  0  0  0  0  0  0
  -10.3980   79.6130   83.3460 C   0  0  1  0  0  0  0  0  0  0  0  0
  -10.0490   78.8240   84.5940 C   0  0  1  0  0  0  0  0  0  0  0  0
   -8.7680   78.0320   84.5510 C   0  0  2  0  0  0  0  0  0  0  0  0
   -6.8950   81.4660   83.6930 N   0  0  0  0  0  0  0  0  0  0  0  0
   -4.6360   82.0480   84.1020 N   0  0  0  0  0  0  0  0  0  0  0  0
   -8.1520   81.8010   87.0780 N   0  0  0  0  0  0  0  0  0  0  0  0
   -6.7820   82.1250   87.1860 N   0  0  0  0  0  0  0  0  0  0  0  0
   -3.7900   82.6210   86.2170 N   0  0  0  0  0  0  0  0  0  0  0  0
   -9.9650   79.7740   85.6740 O   0  0  0  0  0  0  0  0  0  0  0  0
  -10.7260   82.0450   83.1700 O   0  0  0  0  0  0  0  0  0  0  0  0
  -11.8140   79.6340   83.1740 O   0  0  0  0  0  0  0  0  0  0  0  0
   -8.4470   77.5220   85.8380 O   0  0  0  0  0  0  0  0  0  0  0  0
  1 14  1  0  0  0  0
  2 19  1  0  0  0  0
  3 20  1  0  0  0  0
  4 21  1  0  0  0  0
  5 22  1  0  0  0  0
  6 23  1  0  0  0  0
  7 23  1  0  0  0  0
  8 27  1  0  0  0  0
  9 28  1  0  0  0  0
 10 28  1  0  0  0  0
 11 30  1  0  0  0  0
 12 31  1  0  0  0  0
 13 32  1  0  0  0  0
 14 24  1  0  0  0  0
 14 25  2  0  0  0  0
 15 16  1  0  0  0  0
 15 17  1  0  0  0  0
 15 24  2  0  0  0  0
 16 18  2  0  0  0  0
 16 27  1  0  0  0  0
 17 19  1  0  0  0  0
 17 26  2  0  0  0  0
 18 25  1  0  0  0  0
 18 28  1  0  0  0  0
 19 20  1  0  0  0  0
 19 29  1  0  0  0  0
 20 21  1  0  0  0  0
 20 30  1  0  0  0  0
 21 22  1  0  0  0  0
 21 31  1  0  0  0  0
 22 23  1  0  0  0  0
 22 29  1  0  0  0  0
 23 32  1  0  0  0  0
 26 27  1  0  0  0  0
M  END
> <scpdb_id>
4ts9_3

$$$$
