#    Name: 10301
#    Modification time : Tue Aug  8 20:51:59 2017

@<TRIPOS>MOLECULE
10301
   20     0     9     0     0
SMALL
NO_CHARGES


@<TRIPOS>ATOM
      1 N          33.8720  109.7770   40.0500 N.am      1 SEL1        0.0000 
      2 N          33.9650  107.5890   38.4540 N.am      1 SEL1        0.0000 
      3 CA         30.1030  106.6680   39.8290 C.3       2 GLL5        0.0000 
      4 CA         32.0770  106.1670   38.4470 C.3       2 GLL5        0.0000 
      5 CA         30.7770  105.8490   38.9040 C.3       2 GLL5        0.0000 
      6 CZ         31.4252  107.0188   39.3857 C.ar      3 PHL6        0.0000 
      7 N          36.9710  109.6010   39.5050 N.am      4 SEP1        0.0000 
      8 N          34.5470  106.8720   35.1200 N.am      4 SEP1        0.0000 
      9 CA         26.0680  108.1410   38.8840 C.3       5 GLP5        0.0000 
     10 CA         29.5150  104.7780   42.7760 C.3       5 GLP5        0.0000 
     11 CA         33.7150  104.2980   40.8410 C.3       5 GLP5        0.0000 
     12 CA         30.0760  107.0230   35.5890 C.3       5 GLP5        0.0000 
     13 CZ         30.1440  109.4708   37.1853 C.ar      6 PHP6        0.0000 
     14 N          35.4215  109.6890   39.7775 N.am      7 SEC1        0.0000 
     15 N          34.2560  107.2305   36.7870 N.am      7 SEC1        0.0000 
     16 CA         28.0855  107.4045   39.3565 C.3       8 GLC5        0.0000 
     17 CA         30.0622  105.9174   41.3071 C.3       8 GLC5        0.0000 
     18 CA         32.6093  105.4777   39.9659 C.3       8 GLC5        0.0000 
     19 CA         30.5446  106.6521   37.3362 C.3       8 GLC5        0.0000 
     20 CZ         30.7846  108.2448   38.2855 C.ar      9 PHC6        0.0000 
@<TRIPOS>BOND
@<TRIPOS>SUBSTRUCTURE
     1 SEL1        1 GROUP        1 Z    SEL  0     ROOT SEL Z 0
     2 GLL5        3 GROUP        1 Z    GLL  0     **** GLL Z 4
     3 PHL6        6 GROUP        1 Z    PHL  0     **** PHL Z 6
     4 SEP1        7 GROUP        1 Z    SEP  0     **** SEP Z 7
     5 GLP5        9 GROUP        1 Z    GLP  0     **** GLP Z 11
     6 PHP6       13 GROUP        1 Z    PHP  0     **** PHP Z 13
     7 SEC1       14 GROUP        1 Z    SEC  0     **** SEC Z 14
     8 GLC5       16 GROUP        1 Z    GLC  0     **** GLC Z 18
     9 PHC6       20 GROUP        1 Z    PHC  0     **** PHC Z 20
@<TRIPOS>SET

