1wyg_SAL_1_ligand
  -OEChem-08111718373D

 15 15  0     0  0  0  0  0  0999 V2000
   29.1830  106.4368   40.1453 H   0  0  0  0  0  0  0  0  0  0  0  0
   30.3268  105.0240   38.5624 H   0  0  0  0  0  0  0  0  0  0  0  0
   30.3081  108.4417   40.9688 H   0  0  0  0  0  0  0  0  0  0  0  0
   32.5433  105.5772   37.7877 H   0  0  0  0  0  0  0  0  0  0  0  0
   34.4728  108.3978   38.7505 H   0  0  0  0  0  0  0  0  0  0  0  0
   30.1030  106.6680   39.8290 C   0  0  0  0  0  0  0  0  0  0  0  0
   30.7770  105.8490   38.9040 C   0  0  0  0  0  0  0  0  0  0  0  0
   30.7790  107.8550   40.3100 C   0  0  0  0  0  0  0  0  0  0  0  0
   32.0770  106.1670   38.4470 C   0  0  0  0  0  0  0  0  0  0  0  0
   32.1010  108.2240   39.8780 C   0  0  0  0  0  0  0  0  0  0  0  0
   32.7140  107.3500   38.9460 C   0  0  0  0  0  0  0  0  0  0  0  0
   32.7330  109.4150   40.3860 C   0  0  0  0  0  0  0  0  0  0  0  0
   32.1770  110.1670   41.1990 O   0  5  0  0  0  0  0  0  0  0  0  0
   33.8720  109.7770   40.0500 O   0  0  0  0  0  0  0  0  0  0  0  0
   33.9650  107.5890   38.4540 O   0  0  0  0  0  0  0  0  0  0  0  0
  1  6  1  0  0  0  0
  2  7  1  0  0  0  0
  3  8  1  0  0  0  0
  4  9  1  0  0  0  0
  5 15  1  0  0  0  0
  6  7  1  0  0  0  0
  6  8  2  0  0  0  0
  7  9  2  0  0  0  0
  8 10  1  0  0  0  0
  9 11  1  0  0  0  0
 10 11  2  0  0  0  0
 10 12  1  0  0  0  0
 11 15  1  0  0  0  0
 12 13  1  0  0  0  0
 12 14  2  0  0  0  0
M  CHG  1  13  -1
M  END
> <scpdb_id>
1wyg_1

$$$$
