@<TRIPOS>MOLECULE
1wyg_SAL_1_ligand
   15    15     1     0     0
SMALL
NO_CHARGES


@<TRIPOS>ATOM
     1 C1'         32.7330   109.4150    40.3860 C.2          1 SAL4005   0.0000
     2 O1'         33.8720   109.7770    40.0500 O.co2        1 SAL4005   0.0000
     3 O2'         32.1770   110.1670    41.1990 O.co2        1 SAL4005  -1.0000
     4 C1          32.1010   108.2240    39.8780 C.ar         1 SAL4005   0.0000
     5 C2          32.7140   107.3500    38.9460 C.ar         1 SAL4005   0.0000
     6 C3          32.0770   106.1670    38.4470 C.ar         1 SAL4005   0.0000
     7 C4          30.7770   105.8490    38.9040 C.ar         1 SAL4005   0.0000
     8 C5          30.1030   106.6680    39.8290 C.ar         1 SAL4005   0.0000
     9 C6          30.7790   107.8550    40.3100 C.ar         1 SAL4005   0.0000
    10 O2          33.9650   107.5890    38.4540 O.3          1 SAL4005   0.0000
    11 H1          32.5433   105.5772    37.7877 H            1 SAL4005   0.0000
    12 H2          30.3268   105.0240    38.5624 H            1 SAL4005   0.0000
    13 H3          29.1830   106.4368    40.1453 H            1 SAL4005   0.0000
    14 H4          30.3081   108.4417    40.9688 H            1 SAL4005   0.0000
    15 H5          34.4728   108.3978    38.7505 H            1 SAL4005   0.0000
@<TRIPOS>BOND
     1    1    2      ar
     2    1    3      ar
     3    1    4       1
     4    4    5      ar
     5    4    9      ar
     6    5    6      ar
     7    5   10       1
     8    6    7      ar
     9    7    8      ar
    10    8    9      ar
    11   10   15       1
    12    6   11       1
    13    7   12       1
    14    8   13       1
    15    9   14       1
@<TRIPOS>SUBSTRUCTURE
     1 SAL4005     1 GROUP             4 A     SAL     0 **** SAL A4005
