#    Name: 14522
#    Modification time : Tue Aug  8 22:48:40 2017

@<TRIPOS>MOLECULE
14522
   21     0     9     0     0
SMALL
NO_CHARGES


@<TRIPOS>ATOM
      1 N           6.8890    1.6850   31.4600 N.am      1 SEL1        0.0000 
      2 O          11.5680    1.9400   31.7610 O.2       2 ALL2        0.0000 
      3 O           4.4460    1.9730   36.3530 O.2       2 ALL2        0.0000 
      4 O           5.2730    5.5130   36.4990 O.2       2 ALL2        0.0000 
      5 CA          4.8620    4.2510   37.0360 C.3       3 GLL5        0.0000 
      6 CA          3.4340    4.3770   37.5780 C.3       3 GLL5        0.0000 
      7 CA          4.9500    3.1990   35.8860 C.3       3 GLL5        0.0000 
      8 N           7.3580   -1.1500   32.6580 N.am      4 SEP1        0.0000 
      9 O          13.8220    3.2280   33.2630 O.2       5 ALP2        0.0000 
     10 O           5.0100    1.3790   38.8500 O.2       5 ALP2        0.0000 
     11 O           4.3200    7.7140   37.8430 O.2       5 ALP2        0.0000 
     12 CA          7.2870    3.5200   40.5610 C.3       6 GLP5        0.0000 
     13 CA          0.5740    6.8490   37.6430 C.3       6 GLP5        0.0000 
     14 CA          3.3320    5.8250   33.3360 C.3       6 GLP5        0.0000 
     15 N           7.1235    0.2675   32.0590 N.am      7 SEC1        0.0000 
     16 O          12.6950    2.5840   32.5120 O.2       8 ALC2        0.0000 
     17 O           4.7280    1.6760   37.6015 O.2       8 ALC2        0.0000 
     18 O           4.7965    6.6135   37.1710 O.2       8 ALC2        0.0000 
     19 CA          6.0745    3.8855   38.7985 C.3       9 GLC5        0.0000 
     20 CA          2.0040    5.6130   37.6105 C.3       9 GLC5        0.0000 
     21 CA          3.7510    4.9380   35.1778 C.3       9 GLC5        0.0000 
@<TRIPOS>BOND
@<TRIPOS>SUBSTRUCTURE
     1 SEL1        1 GROUP        1 Z    SEL  0     ROOT SEL Z 0
     2 ALL2        2 GROUP        1 Z    ALL  0     **** ALL Z 1
     3 GLL5        5 GROUP        1 Z    GLL  0     **** GLL Z 4
     4 SEP1        8 GROUP        1 Z    SEP  0     **** SEP Z 7
     5 ALP2        9 GROUP        1 Z    ALP  0     **** ALP Z 8
     6 GLP5       12 GROUP        1 Z    GLP  0     **** GLP Z 11
     7 SEC1       15 GROUP        1 Z    SEC  0     **** SEC Z 14
     8 ALC2       16 GROUP        1 Z    ALC  0     **** ALC Z 15
     9 GLC5       19 GROUP        1 Z    GLC  0     **** GLC Z 18
@<TRIPOS>SET

