@<TRIPOS>MOLECULE
2g6i_HBI_1_ligand
   28    29     1     0     0
SMALL
NO_CHARGES


@<TRIPOS>ATOM
     1 N1          10.2220     2.5040    33.6250 N.2          1 HBI760   0.0000
     2 N2          11.5680     1.9400    31.7610 N.pl3        1 HBI760   0.0000
     3 C2          10.3710     2.0840    32.3270 C.2          1 HBI760   0.0000
     4 N3           9.2110     1.8100    31.6040 N.pl3        1 HBI760   0.0000
     5 C4           7.8990     1.9480    32.1530 C.2          1 HBI760   0.0000
     6 O4           6.8890     1.6850    31.4600 O.2          1 HBI760   0.0000
     7 C4A          7.7970     2.3950    33.4890 C.ar         1 HBI760   0.0000
     8 C8A          8.9920     2.6690    34.2350 C.ar         1 HBI760   0.0000
     9 N8           8.9430     3.1040    35.5530 N.ar         1 HBI760   0.0000
    10 C7           7.6020     3.1470    36.2670 C.ar         1 HBI760   0.0000
    11 C6           6.3850     2.9900    35.3600 C.ar         1 HBI760   0.0000
    12 N5           6.5430     2.5580    34.0440 N.ar         1 HBI760   0.0000
    13 C9           4.9500     3.1990    35.8860 C.3          1 HBI760   0.0000
    14 O9           4.4460     1.9730    36.3530 O.3          1 HBI760   0.0000
    15 C10          4.8620     4.2510    37.0360 C.3          1 HBI760   0.0000
    16 O10          5.2730     5.5130    36.4990 O.3          1 HBI760   0.0000
    17 C11          3.4340     4.3770    37.5780 C.3          1 HBI760   0.0000
    18 H1          11.6387     1.6317    30.8123 H            1 HBI760   0.0000
    19 H2          12.3961     2.1402    32.2847 H            1 HBI760   0.0000
    20 H3           7.5232     3.2690    37.2564 H            1 HBI760   0.0000
    21 H4           4.3765     3.5094    35.1279 H            1 HBI760   0.0000
    22 H5           5.0280     1.6330    37.0917 H            1 HBI760   0.0000
    23 H6           5.4785     3.9871    37.7778 H            1 HBI760   0.0000
    24 H7           4.8003     6.2504    36.9815 H            1 HBI760   0.0000
    25 H8           3.4144     5.0571    38.3108 H            1 HBI760   0.0000
    26 H9           2.8218     4.6634    36.8410 H            1 HBI760   0.0000
    27 H10          3.1340     3.4927    37.9358 H            1 HBI760   0.0000
    28 H11          9.3013     1.5025    30.6568 H            1 HBI760   0.0000
@<TRIPOS>BOND
     1    1    3       2
     2    1    8       1
     3    2    3       1
     4    3    4       1
     5    4    5       1
     6    5    6       2
     7    5    7       1
     8    7    8      ar
     9    7   12      ar
    10    8    9      ar
    11    9   10      ar
    12   10   11      ar
    13   11   12      ar
    14   11   13       1
    15   13   14       1
    16   13   15       1
    17   15   16       1
    18   15   17       1
    19   17   27       1
    20    2   18       1
    21    2   19       1
    22   10   20       1
    23   13   21       1
    24   14   22       1
    25   15   23       1
    26   16   24       1
    27   17   25       1
    28   17   26       1
    29    4   28       1
@<TRIPOS>SUBSTRUCTURE
     1 HBI760      1 GROUP             4 A     HBI     0 **** HBI A 760
