2g6i_HBI_1_ligand
  -OEChem-08111718373D

 28 29  0     1  0  0  0  0  0999 V2000
    7.5232    3.2690   37.2564 H   0  0  0  0  0  0  0  0  0  0  0  0
    3.4144    5.0571   38.3108 H   0  0  0  0  0  0  0  0  0  0  0  0
    2.8218    4.6634   36.8410 H   0  0  0  0  0  0  0  0  0  0  0  0
    3.1340    3.4927   37.9358 H   0  0  0  0  0  0  0  0  0  0  0  0
    4.3765    3.5094   35.1279 H   0  0  0  0  0  0  0  0  0  0  0  0
    5.4785    3.9871   37.7778 H   0  0  0  0  0  0  0  0  0  0  0  0
    9.3013    1.5025   30.6568 H   0  0  0  0  0  0  0  0  0  0  0  0
   11.6387    1.6317   30.8123 H   0  0  0  0  0  0  0  0  0  0  0  0
   12.3961    2.1402   32.2847 H   0  0  0  0  0  0  0  0  0  0  0  0
    5.0280    1.6330   37.0917 H   0  0  0  0  0  0  0  0  0  0  0  0
    4.8003    6.2504   36.9815 H   0  0  0  0  0  0  0  0  0  0  0  0
    7.6020    3.1470   36.2670 C   0  0  0  0  0  0  0  0  0  0  0  0
    7.7970    2.3950   33.4890 C   0  0  0  0  0  0  0  0  0  0  0  0
    6.3850    2.9900   35.3600 C   0  0  0  0  0  0  0  0  0  0  0  0
    8.9920    2.6690   34.2350 C   0  0  0  0  0  0  0  0  0  0  0  0
    7.8990    1.9480   32.1530 C   0  0  0  0  0  0  0  0  0  0  0  0
   10.3710    2.0840   32.3270 C   0  0  0  0  0  0  0  0  0  0  0  0
    3.4340    4.3770   37.5780 C   0  0  0  0  0  0  0  0  0  0  0  0
    4.9500    3.1990   35.8860 C   0  0  2  0  0  0  0  0  0  0  0  0
    4.8620    4.2510   37.0360 C   0  0  1  0  0  0  0  0  0  0  0  0
    8.9430    3.1040   35.5530 N   0  0  0  0  0  0  0  0  0  0  0  0
    6.5430    2.5580   34.0440 N   0  0  0  0  0  0  0  0  0  0  0  0
   10.2220    2.5040   33.6250 N   0  0  0  0  0  0  0  0  0  0  0  0
    9.2110    1.8100   31.6040 N   0  0  0  0  0  0  0  0  0  0  0  0
   11.5680    1.9400   31.7610 N   0  0  0  0  0  0  0  0  0  0  0  0
    6.8890    1.6850   31.4600 O   0  0  0  0  0  0  0  0  0  0  0  0
    4.4460    1.9730   36.3530 O   0  0  0  0  0  0  0  0  0  0  0  0
    5.2730    5.5130   36.4990 O   0  0  0  0  0  0  0  0  0  0  0  0
  1 12  1  0  0  0  0
  2 18  1  0  0  0  0
  3 18  1  0  0  0  0
  4 18  1  0  0  0  0
  5 19  1  0  0  0  0
  6 20  1  0  0  0  0
  7 24  1  0  0  0  0
  8 25  1  0  0  0  0
  9 25  1  0  0  0  0
 10 27  1  0  0  0  0
 11 28  1  0  0  0  0
 12 14  1  0  0  0  0
 12 21  2  0  0  0  0
 13 15  2  0  0  0  0
 13 16  1  0  0  0  0
 13 22  1  0  0  0  0
 14 19  1  0  0  0  0
 14 22  2  0  0  0  0
 15 21  1  0  0  0  0
 15 23  1  0  0  0  0
 16 24  1  0  0  0  0
 16 26  2  0  0  0  0
 17 23  2  0  0  0  0
 17 24  1  0  0  0  0
 17 25  1  0  0  0  0
 18 20  1  0  0  0  0
 19 20  1  0  0  0  0
 19 27  1  0  0  0  0
 20 28  1  0  0  0  0
M  END
> <scpdb_id>
2g6i_1

$$$$
