#    Name: 16213
#    Modification time : Tue Aug  8 21:24:13 2017

@<TRIPOS>MOLECULE
16213
   97     0    12     0     0
SMALL
NO_CHARGES


@<TRIPOS>ATOM
      1 N          41.0520   58.8850  -21.9450 N.am      1 SEL1        0.0000 
      2 N          42.3350   60.9930  -22.7020 N.am      1 SEL1        0.0000 
      3 N          46.8440   57.9410  -25.5430 N.am      1 SEL1        0.0000 
      4 N          47.9590   59.5990  -31.5660 N.am      1 SEL1        0.0000 
      5 N          46.5610   58.5520  -29.9690 N.am      1 SEL1        0.0000 
      6 N          36.0680   58.9600  -14.7270 N.am      1 SEL1        0.0000 
      7 N          34.1860   57.6960  -14.6050 N.am      1 SEL1        0.0000 
      8 N          36.6030   58.3030  -10.8220 N.am      1 SEL1        0.0000 
      9 N          38.3920   59.0050  -24.6540 N.am      1 SEL1        0.0000 
     10 N          37.5870   61.3190  -23.8870 N.am      1 SEL1        0.0000 
     11 N          39.9320   60.6510  -23.4340 N.am      1 SEL1        0.0000 
     12 O          44.3320   56.8350  -25.0840 O.2       2 ALL2        0.0000 
     13 O          46.8440   57.9410  -25.5430 O.2       2 ALL2        0.0000 
     14 O          48.9180   61.6970  -31.2060 O.2       2 ALL2        0.0000 
     15 O          35.3520   58.0160  -12.6960 O.2       2 ALL2        0.0000 
     16 O          36.5720   60.8600  -18.6540 O.2       2 ALL2        0.0000 
     17 NZ         42.3350   60.9930  -22.7020 N.4       3 LYL3        0.0000 
     18 CA         45.7170   58.7800  -25.7330 C.3       4 GLL5        0.0000 
     19 CA         42.8420   61.9230  -12.1180 C.3       4 GLL5        0.0000 
     20 CA         42.7850   61.7120  -15.0780 C.3       4 GLL5        0.0000 
     21 CA         40.4100   60.9650  -14.8830 C.3       4 GLL5        0.0000 
     22 CA         39.2710   60.5930  -14.1530 C.3       4 GLL5        0.0000 
     23 CA         38.0400   59.5740  -17.2540 C.3       4 GLL5        0.0000 
     24 CA         37.9300   60.2320  -21.0580 C.3       4 GLL5        0.0000 
     25 CA         38.0130   59.3660  -19.8120 C.3       4 GLL5        0.0000 
     26 N          43.1360   57.9930  -20.1360 N.am      5 SEP1        0.0000 
     27 N          45.0140   60.7180  -22.6720 N.am      5 SEP1        0.0000 
     28 N          41.8010   62.4950  -20.2960 N.am      5 SEP1        0.0000 
     29 N          39.9240   63.0620  -21.4830 N.am      5 SEP1        0.0000 
     30 N          47.0790   58.3580  -22.6750 N.am      5 SEP1        0.0000 
     31 N          49.6790   59.4480  -34.0020 N.am      5 SEP1        0.0000 
     32 N          48.2150   55.8420  -29.5010 N.am      5 SEP1        0.0000 
     33 N          33.8740   58.9910  -17.2370 N.am      5 SEP1        0.0000 
     34 N          34.9948   55.1939  -15.3202 N.am      5 SEP1        0.0000 
     35 N          31.4840   57.3680  -15.4230 N.am      5 SEP1        0.0000 
     36 N          38.3720   55.9420  -11.1970 N.am      5 SEP1        0.0000 
     37 N          35.9310   55.5620   -9.7510 N.am      5 SEP1        0.0000 
     38 N          39.5150   57.7830  -26.8310 N.am      5 SEP1        0.0000 
     39 N          36.3630   57.1190  -25.3050 N.am      5 SEP1        0.0000 
     40 N          35.4030   63.3470  -23.4130 N.am      5 SEP1        0.0000 
     41 O          44.9240   55.6550  -27.4400 O.2       6 ALP2        0.0000 
     42 O          46.8950   55.5180  -26.4670 O.2       6 ALP2        0.0000 
     43 O          50.2470   62.2010  -34.1670 O.2       6 ALP2        0.0000 
     44 O          33.6370   56.6190  -10.9640 O.2       6 ALP2        0.0000 
     45 O          36.8900   63.5370  -19.3050 O.2       6 ALP2        0.0000 
     46 NZ         40.5920   63.0570  -20.3350 N.4       7 LYP3        0.0000 
     47 CA         49.4040   60.2390  -25.1760 C.3       8 GLP5        0.0000 
     48 CA         44.2880   65.8090  -11.4280 C.3       8 GLP5        0.0000 
     49 CA         42.1800   62.9820   -8.4780 C.3       8 GLP5        0.0000 
     50 CA         40.4800   64.9190  -12.7600 C.3       8 GLP5        0.0000 
     51 CA         42.4420   59.8520  -18.6530 C.3       8 GLP5        0.0000 
     52 CA         46.0660   60.2790  -14.9380 C.3       8 GLP5        0.0000 
     53 CA         43.4680   65.7850  -14.7920 C.3       8 GLP5        0.0000 
     54 CA         38.4500   56.4440  -14.4880 C.3       8 GLP5        0.0000 
     55 CA         39.2470   55.3590  -18.0410 C.3       8 GLP5        0.0000 
     56 CA         35.3650   56.3450  -17.3910 C.3       8 GLP5        0.0000 
     57 CA         35.1710   63.1890  -20.9230 C.3       8 GLP5        0.0000 
     58 CA         37.7510   55.9750  -21.5370 C.3       8 GLP5        0.0000 
     59 CA         34.6110   59.4960  -22.6600 C.3       8 GLP5        0.0000 
     60 N          42.0940   58.4390  -21.0405 N.am      9 SEC1        0.0000 
     61 N          43.6745   60.8555  -22.6870 N.am      9 SEC1        0.0000 
     62 N          42.0680   61.7440  -21.4990 N.am      9 SEC1        0.0000 
     63 N          41.1295   62.0275  -22.0925 N.am      9 SEC1        0.0000 
     64 N          46.9615   58.1495  -24.1090 N.am      9 SEC1        0.0000 
     65 N          48.8190   59.5235  -32.7840 N.am      9 SEC1        0.0000 
     66 N          47.3880   57.1970  -29.7350 N.am      9 SEC1        0.0000 
     67 N          34.9710   58.9755  -15.9820 N.am      9 SEC1        0.0000 
     68 N          34.0300   58.3435  -15.9210 N.am      9 SEC1        0.0000 
     69 N          34.5904   56.4449  -14.9626 N.am      9 SEC1        0.0000 
     70 N          32.8350   57.5320  -15.0140 N.am      9 SEC1        0.0000 
     71 N          37.4875   57.1225  -11.0095 N.am      9 SEC1        0.0000 
     72 N          36.2670   56.9325  -10.2865 N.am      9 SEC1        0.0000 
     73 N          38.9535   58.3940  -25.7425 N.am      9 SEC1        0.0000 
     74 N          37.3775   58.0620  -24.9795 N.am      9 SEC1        0.0000 
     75 N          36.4950   62.3330  -23.6500 N.am      9 SEC1        0.0000 
     76 N          39.9280   61.8565  -22.4585 N.am      9 SEC1        0.0000 
     77 O          44.6280   56.2450  -26.2620 O.2      10 ALC2        0.0000 
     78 O          46.8695   56.7295  -26.0050 O.2      10 ALC2        0.0000 
     79 O          49.5825   61.9490  -32.6865 O.2      10 ALC2        0.0000 
     80 O          34.4945   57.3175  -11.8300 O.2      10 ALC2        0.0000 
     81 O          36.7310   62.1985  -18.9795 O.2      10 ALC2        0.0000 
     82 NZ         41.4635   62.0250  -21.5185 N.4      11 LYC3        0.0000 
     83 CA         47.5605   59.5095  -25.4545 C.3      12 GLC5        0.0000 
     84 CA         43.5650   63.8660  -11.7730 C.3      12 GLC5        0.0000 
     85 CA         42.5110   62.4525  -10.2980 C.3      12 GLC5        0.0000 
     86 CA         41.6610   63.4210  -12.4390 C.3      12 GLC5        0.0000 
     87 CA         42.6135   60.7820  -16.8655 C.3      12 GLC5        0.0000 
     88 CA         44.4255   60.9955  -15.0080 C.3      12 GLC5        0.0000 
     89 CA         43.1265   63.7485  -14.9350 C.3      12 GLC5        0.0000 
     90 CA         41.4260   60.4085  -16.7680 C.3      12 GLC5        0.0000 
     91 CA         38.8605   58.5185  -14.3205 C.3      12 GLC5        0.0000 
     92 CA         38.6435   57.4665  -17.6475 C.3      12 GLC5        0.0000 
     93 CA         38.2450   58.0090  -15.8710 C.3      12 GLC5        0.0000 
     94 CA         36.7025   57.9595  -17.3225 C.3      12 GLC5        0.0000 
     95 CA         36.5505   61.7105  -20.9905 C.3      12 GLC5        0.0000 
     96 CA         37.8612   57.8870  -20.9860 C.3      12 GLC5        0.0000 
     97 CA         36.2912   59.6475  -21.5475 C.3      12 GLC5        0.0000 
@<TRIPOS>BOND
@<TRIPOS>SUBSTRUCTURE
     1 SEL1        1 GROUP        1 Z    SEL  0     ROOT SEL Z 0
     2 ALL2       12 GROUP        1 Z    ALL  0     **** ALL Z 1
     3 LYL3       17 GROUP        1 Z    LYL  0     **** LYL Z 2
     4 GLL5       18 GROUP        1 Z    GLL  0     **** GLL Z 4
     5 SEP1       26 GROUP        1 Z    SEP  0     **** SEP Z 7
     6 ALP2       41 GROUP        1 Z    ALP  0     **** ALP Z 8
     7 LYP3       46 GROUP        1 Z    LYP  0     **** LYP Z 9
     8 GLP5       47 GROUP        1 Z    GLP  0     **** GLP Z 11
     9 SEC1       60 GROUP        1 Z    SEC  0     **** SEC Z 14
    10 ALC2       77 GROUP        1 Z    ALC  0     **** ALC Z 15
    11 LYC3       82 GROUP        1 Z    LYC  0     **** LYC Z 16
    12 GLC5       83 GROUP        1 Z    GLC  0     **** GLC Z 18
@<TRIPOS>SET

