2jb2_FAD_2_ligand
  -OEChem-08111718373D

 84 89  0     1  0  0  0  0  0999 V2000
   40.4941   61.1320  -11.1234 H   0  0  0  0  0  0  0  0  0  0  0  0
   40.3934   60.9077  -15.8812 H   0  0  0  0  0  0  0  0  0  0  0  0
   46.9522   57.8138  -31.8592 H   0  0  0  0  0  0  0  0  0  0  0  0
   46.5686   61.5099  -26.6089 H   0  0  0  0  0  0  0  0  0  0  0  0
   44.2840   58.6347  -24.2269 H   0  0  0  0  0  0  0  0  0  0  0  0
   45.9137   59.6725  -25.3272 H   0  0  0  0  0  0  0  0  0  0  0  0
   42.8016   58.1024  -26.4677 H   0  0  0  0  0  0  0  0  0  0  0  0
   45.3170   58.0991  -27.6555 H   0  0  0  0  0  0  0  0  0  0  0  0
   43.5497   62.1709  -12.7796 H   0  0  0  0  0  0  0  0  0  0  0  0
   42.6270   62.7154  -11.5472 H   0  0  0  0  0  0  0  0  0  0  0  0
   43.1722   61.1761  -11.5408 H   0  0  0  0  0  0  0  0  0  0  0  0
   42.5606   61.6106  -16.0472 H   0  0  0  0  0  0  0  0  0  0  0  0
   43.0868   62.6490  -14.9020 H   0  0  0  0  0  0  0  0  0  0  0  0
   43.5173   61.0751  -14.8370 H   0  0  0  0  0  0  0  0  0  0  0  0
   42.9321   60.5902  -25.0195 H   0  0  0  0  0  0  0  0  0  0  0  0
   41.7257   60.1576  -26.0315 H   0  0  0  0  0  0  0  0  0  0  0  0
   38.3356   61.4259  -16.3848 H   0  0  0  0  0  0  0  0  0  0  0  0
   36.8098   60.8696  -16.2145 H   0  0  0  0  0  0  0  0  0  0  0  0
   38.6787   60.8948  -21.0501 H   0  0  0  0  0  0  0  0  0  0  0  0
   37.0555   60.7170  -21.0656 H   0  0  0  0  0  0  0  0  0  0  0  0
   37.3671   58.8389  -17.1711 H   0  0  0  0  0  0  0  0  0  0  0  0
   37.2692   58.6976  -19.8215 H   0  0  0  0  0  0  0  0  0  0  0  0
   38.5435   61.0017  -18.6672 H   0  0  0  0  0  0  0  0  0  0  0  0
   34.8008   57.3238  -12.2302 H   0  0  0  0  0  0  0  0  0  0  0  0
   49.3673   61.6298  -32.0968 H   0  0  0  0  0  0  0  0  0  0  0  0
   49.0519   62.5094  -30.6385 H   0  0  0  0  0  0  0  0  0  0  0  0
   44.4741   56.4542  -25.9977 H   0  0  0  0  0  0  0  0  0  0  0  0
   46.6748   57.0534  -25.9714 H   0  0  0  0  0  0  0  0  0  0  0  0
   39.6851   58.7636  -18.0047 H   0  0  0  0  0  0  0  0  0  0  0  0
   39.8036   58.9192  -20.5579 H   0  0  0  0  0  0  0  0  0  0  0  0
   36.6607   61.8477  -18.7826 H   0  0  0  0  0  0  0  0  0  0  0  0
   40.4730   61.0840  -12.1220 C   0  0  0  0  0  0  0  0  0  0  0  0
   40.4100   60.9650  -14.8830 C   0  0  0  0  0  0  0  0  0  0  0  0
   47.1330   58.5570  -31.2150 C   0  0  0  0  0  0  0  0  0  0  0  0
   46.7140   61.0970  -27.5080 C   0  0  0  0  0  0  0  0  0  0  0  0
   41.5970   61.4790  -12.8540 C   0  0  0  0  0  0  0  0  0  0  0  0
   41.5620   61.4120  -14.2440 C   0  0  0  0  0  0  0  0  0  0  0  0
   39.3250   60.6250  -12.7620 C   0  0  0  0  0  0  0  0  0  0  0  0
   47.4780   60.7250  -29.5390 C   0  0  0  0  0  0  0  0  0  0  0  0
   39.2710   60.5930  -14.1530 C   0  0  0  0  0  0  0  0  0  0  0  0
   37.1440   59.5950  -12.6630 C   0  0  0  0  0  0  0  0  0  0  0  0
   46.6900   59.6430  -29.1850 C   0  0  0  0  0  0  0  0  0  0  0  0
   48.1370   60.6990  -30.7730 C   0  0  0  0  0  0  0  0  0  0  0  0
   36.3380   58.6860  -11.9850 C   0  0  0  0  0  0  0  0  0  0  0  0
   37.0640   59.6380  -14.0510 C   0  0  0  0  0  0  0  0  0  0  0  0
   35.1130   58.2800  -14.0270 C   0  0  0  0  0  0  0  0  0  0  0  0
   44.4070   58.2580  -25.1450 C   0  0  1  0  0  0  0  0  0  0  0  0
   45.7170   58.7800  -25.7330 C   0  0  2  0  0  0  0  0  0  0  0  0
   43.3430   58.8500  -26.0830 C   0  0  1  0  0  0  0  0  0  0  0  0
   45.3380   58.9860  -27.1940 C   0  0  2  0  0  0  0  0  0  0  0  0
   42.8420   61.9230  -12.1180 C   0  0  0  0  0  0  0  0  0  0  0  0
   42.7850   61.7120  -15.0780 C   0  0  0  0  0  0  0  0  0  0  0  0
   42.4080   59.8200  -25.3830 C   0  0  1  0  0  0  0  0  0  0  0  0
   37.7780   60.6220  -16.1780 C   0  0  1  0  0  0  0  0  0  0  0  0
   37.9300   60.2320  -21.0580 C   0  0  2  0  0  0  0  0  0  0  0  0
   38.0400   59.5740  -17.2540 C   0  0  1  0  0  0  0  0  0  0  0  0
   38.0130   59.3660  -19.8120 C   0  0  2  0  0  0  0  0  0  0  0  0
   37.8630   60.2720  -18.6000 C   0  0  1  0  0  0  0  0  0  0  0  0
   46.5610   58.5520  -29.9690 N   0  0  0  0  0  0  0  0  0  0  0  0
   47.9590   59.5990  -31.5660 N   0  0  0  0  0  0  0  0  0  0  0  0
   47.4450   61.6220  -28.5200 N   0  0  0  0  0  0  0  0  0  0  0  0
   38.2310   60.1970  -12.0210 N   0  0  0  0  0  0  0  0  0  0  0  0
   36.0680   58.9600  -14.7270 N   0  0  0  0  0  0  0  0  0  0  0  0
   35.3520   58.0160  -12.6960 N   0  0  0  0  0  0  0  0  0  0  0  0
   46.2080   59.8940  -27.9400 N   0  0  0  0  0  0  0  0  0  0  0  0
   38.0940   60.1830  -14.7810 N   0  0  0  0  0  0  0  0  0  0  0  0
   48.9180   61.6970  -31.2060 N   0  0  0  0  0  0  0  0  0  0  0  0
   42.3350   60.9930  -22.7020 O   0  5  0  0  0  0  0  0  0  0  0  0
   37.5870   61.3190  -23.8870 O   0  5  0  0  0  0  0  0  0  0  0  0
   36.6030   58.3030  -10.8220 O   0  0  0  0  0  0  0  0  0  0  0  0
   34.1860   57.6960  -14.6050 O   0  0  0  0  0  0  0  0  0  0  0  0
   41.0520   58.8850  -21.9450 O   0  0  0  0  0  0  0  0  0  0  0  0
   38.3920   59.0050  -24.6540 O   0  0  0  0  0  0  0  0  0  0  0  0
   44.0290   59.5130  -27.1440 O   0  0  0  0  0  0  0  0  0  0  0  0
   44.3320   56.8350  -25.0840 O   0  0  0  0  0  0  0  0  0  0  0  0
   46.8440   57.9410  -25.5430 O   0  0  0  0  0  0  0  0  0  0  0  0
   39.3360   59.0390  -17.1090 O   0  0  0  0  0  0  0  0  0  0  0  0
   39.2580   58.6860  -19.7530 O   0  0  0  0  0  0  0  0  0  0  0  0
   36.5720   60.8600  -18.6540 O   0  0  0  0  0  0  0  0  0  0  0  0
   41.7640   59.1410  -24.3250 O   0  0  0  0  0  0  0  0  0  0  0  0
   38.0290   59.4290  -22.2180 O   0  0  0  0  0  0  0  0  0  0  0  0
   39.9320   60.6510  -23.4340 O   0  0  0  0  0  0  0  0  0  0  0  0
   41.3090   59.9170  -22.9980 P   0  0  2  0  0  0  0  0  0  0  0  0
   38.4230   60.0990  -23.6310 P   0  0  2  0  0  0  0  0  0  0  0  0
  1 32  1  0  0  0  0
  2 33  1  0  0  0  0
  3 34  1  0  0  0  0
  4 35  1  0  0  0  0
  5 47  1  0  0  0  0
  6 48  1  0  0  0  0
  7 49  1  0  0  0  0
  8 50  1  0  0  0  0
  9 51  1  0  0  0  0
 10 51  1  0  0  0  0
 11 51  1  0  0  0  0
 12 52  1  0  0  0  0
 13 52  1  0  0  0  0
 14 52  1  0  0  0  0
 15 53  1  0  0  0  0
 16 53  1  0  0  0  0
 17 54  1  0  0  0  0
 18 54  1  0  0  0  0
 19 55  1  0  0  0  0
 20 55  1  0  0  0  0
 21 56  1  0  0  0  0
 22 57  1  0  0  0  0
 23 58  1  0  0  0  0
 24 64  1  0  0  0  0
 25 67  1  0  0  0  0
 26 67  1  0  0  0  0
 27 75  1  0  0  0  0
 28 76  1  0  0  0  0
 29 77  1  0  0  0  0
 30 78  1  0  0  0  0
 31 79  1  0  0  0  0
 32 36  1  0  0  0  0
 32 38  2  0  0  0  0
 33 37  1  0  0  0  0
 33 40  2  0  0  0  0
 34 59  1  0  0  0  0
 34 60  2  0  0  0  0
 35 61  2  0  0  0  0
 35 65  1  0  0  0  0
 36 37  2  0  0  0  0
 36 51  1  0  0  0  0
 37 52  1  0  0  0  0
 38 40  1  0  0  0  0
 38 62  1  0  0  0  0
 39 42  1  0  0  0  0
 39 43  2  0  0  0  0
 39 61  1  0  0  0  0
 40 66  1  0  0  0  0
 41 44  1  0  0  0  0
 41 45  1  0  0  0  0
 41 62  2  0  0  0  0
 42 59  2  0  0  0  0
 42 65  1  0  0  0  0
 43 60  1  0  0  0  0
 43 67  1  0  0  0  0
 44 64  1  0  0  0  0
 44 70  2  0  0  0  0
 45 63  2  0  0  0  0
 45 66  1  0  0  0  0
 46 63  1  0  0  0  0
 46 64  1  0  0  0  0
 46 71  2  0  0  0  0
 47 48  1  0  0  0  0
 47 49  1  0  0  0  0
 47 75  1  0  0  0  0
 48 50  1  0  0  0  0
 48 76  1  0  0  0  0
 49 53  1  0  0  0  0
 49 74  1  0  0  0  0
 50 65  1  0  0  0  0
 50 74  1  0  0  0  0
 53 80  1  0  0  0  0
 54 56  1  0  0  0  0
 54 66  1  0  0  0  0
 55 57  1  0  0  0  0
 55 81  1  0  0  0  0
 56 58  1  0  0  0  0
 56 77  1  0  0  0  0
 57 58  1  0  0  0  0
 57 78  1  0  0  0  0
 58 79  1  0  0  0  0
 68 83  1  0  0  0  0
 69 84  1  0  0  0  0
 72 83  2  0  0  0  0
 73 84  2  0  0  0  0
 80 83  1  0  0  0  0
 81 84  1  0  0  0  0
 82 83  1  0  0  0  0
 82 84  1  0  0  0  0
M  CHG  2  68  -1  69  -1
M  END
> <scpdb_id>
2jb2_2

$$$$
