@<TRIPOS>MOLECULE
2jb2_FAD_2_ligand
   84    89     1     0     0
SMALL
NO_CHARGES


@<TRIPOS>ATOM
     1 PA          41.3090    59.9170   -22.9980 P.3          1 FAD1489   0.0000
     2 O1A         41.0520    58.8850   -21.9450 O.co2        1 FAD1489   0.0000
     3 O2A         42.3350    60.9930   -22.7020 O.co2        1 FAD1489  -1.0000
     4 O5B         41.7640    59.1410   -24.3250 O.3          1 FAD1489   0.0000
     5 C5B         42.4080    59.8200   -25.3830 C.3          1 FAD1489   0.0000
     6 C4B         43.3430    58.8500   -26.0830 C.3          1 FAD1489   0.0000
     7 O4B         44.0290    59.5130   -27.1440 O.3          1 FAD1489   0.0000
     8 C3B         44.4070    58.2580   -25.1450 C.3          1 FAD1489   0.0000
     9 O3B         44.3320    56.8350   -25.0840 O.3          1 FAD1489   0.0000
    10 C2B         45.7170    58.7800   -25.7330 C.3          1 FAD1489   0.0000
    11 O2B         46.8440    57.9410   -25.5430 O.3          1 FAD1489   0.0000
    12 C1B         45.3380    58.9860   -27.1940 C.3          1 FAD1489   0.0000
    13 N9A         46.2080    59.8940   -27.9400 N.pl3        1 FAD1489   0.0000
    14 C8A         46.7140    61.0970   -27.5080 C.2          1 FAD1489   0.0000
    15 N7A         47.4450    61.6220   -28.5200 N.2          1 FAD1489   0.0000
    16 C5A         47.4780    60.7250   -29.5390 C.ar         1 FAD1489   0.0000
    17 C6A         48.1370    60.6990   -30.7730 C.ar         1 FAD1489   0.0000
    18 N6A         48.9180    61.6970   -31.2060 N.pl3        1 FAD1489   0.0000
    19 N1A         47.9590    59.5990   -31.5660 N.ar         1 FAD1489   0.0000
    20 C2A         47.1330    58.5570   -31.2150 C.ar         1 FAD1489   0.0000
    21 N3A         46.5610    58.5520   -29.9690 N.ar         1 FAD1489   0.0000
    22 C4A         46.6900    59.6430   -29.1850 C.ar         1 FAD1489   0.0000
    23 N1          36.0680    58.9600   -14.7270 N.2          1 FAD1489   0.0000
    24 C2          35.1130    58.2800   -14.0270 C.2          1 FAD1489   0.0000
    25 O2          34.1860    57.6960   -14.6050 O.2          1 FAD1489   0.0000
    26 N3          35.3520    58.0160   -12.6960 N.pl3        1 FAD1489   0.0000
    27 C4          36.3380    58.6860   -11.9850 C.2          1 FAD1489   0.0000
    28 O4          36.6030    58.3030   -10.8220 O.2          1 FAD1489   0.0000
    29 C4X         37.1440    59.5950   -12.6630 C.2          1 FAD1489   0.0000
    30 N5          38.2310    60.1970   -12.0210 N.2          1 FAD1489   0.0000
    31 C5X         39.3250    60.6250   -12.7620 C.ar         1 FAD1489   0.0000
    32 C6          40.4730    61.0840   -12.1220 C.ar         1 FAD1489   0.0000
    33 C7          41.5970    61.4790   -12.8540 C.ar         1 FAD1489   0.0000
    34 C7M         42.8420    61.9230   -12.1180 C.3          1 FAD1489   0.0000
    35 C8          41.5620    61.4120   -14.2440 C.ar         1 FAD1489   0.0000
    36 C8M         42.7850    61.7120   -15.0780 C.3          1 FAD1489   0.0000
    37 C9          40.4100    60.9650   -14.8830 C.ar         1 FAD1489   0.0000
    38 C9A         39.2710    60.5930   -14.1530 C.ar         1 FAD1489   0.0000
    39 N10         38.0940    60.1830   -14.7810 N.pl3        1 FAD1489   0.0000
    40 C10         37.0640    59.6380   -14.0510 C.2          1 FAD1489   0.0000
    41 C1'         37.7780    60.6220   -16.1780 C.3          1 FAD1489   0.0000
    42 C2'         38.0400    59.5740   -17.2540 C.3          1 FAD1489   0.0000
    43 O2'         39.3360    59.0390   -17.1090 O.3          1 FAD1489   0.0000
    44 C3'         37.8630    60.2720   -18.6000 C.3          1 FAD1489   0.0000
    45 O3'         36.5720    60.8600   -18.6540 O.3          1 FAD1489   0.0000
    46 C4'         38.0130    59.3660   -19.8120 C.3          1 FAD1489   0.0000
    47 O4'         39.2580    58.6860   -19.7530 O.3          1 FAD1489   0.0000
    48 C5'         37.9300    60.2320   -21.0580 C.3          1 FAD1489   0.0000
    49 O5'         38.0290    59.4290   -22.2180 O.3          1 FAD1489   0.0000
    50 P           38.4230    60.0990   -23.6310 P.3          1 FAD1489   0.0000
    51 O1P         38.3920    59.0050   -24.6540 O.co2        1 FAD1489   0.0000
    52 O2P         37.5870    61.3190   -23.8870 O.co2        1 FAD1489  -1.0000
    53 O3P         39.9320    60.6510   -23.4340 O.3          1 FAD1489   0.0000
    54 H5B1        42.9321    60.5902   -25.0195 H            1 FAD1489   0.0000
    55 H5B2        41.7257    60.1576   -26.0315 H            1 FAD1489   0.0000
    56 H4B         42.8016    58.1024   -26.4677 H            1 FAD1489   0.0000
    57 H3B         44.2840    58.6347   -24.2269 H            1 FAD1489   0.0000
    58 H5          44.4741    56.4542   -25.9977 H            1 FAD1489   0.0000
    59 H2B         45.9137    59.6725   -25.3272 H            1 FAD1489   0.0000
    60 H7          46.6748    57.0534   -25.9714 H            1 FAD1489   0.0000
    61 H1B         45.3170    58.0991   -27.6555 H            1 FAD1489   0.0000
    62 H8A         46.5686    61.5099   -26.6089 H            1 FAD1489   0.0000
    63 H6A1        49.3673    61.6298   -32.0968 H            1 FAD1489   0.0000
    64 H6A2        49.0519    62.5094   -30.6385 H            1 FAD1489   0.0000
    65 H2A         46.9522    57.8138   -31.8592 H            1 FAD1489   0.0000
    66 H13         34.8008    57.3238   -12.2302 H            1 FAD1489   0.0000
    67 H14         40.4941    61.1320   -11.1234 H            1 FAD1489   0.0000
    68 H7M1        43.5497    62.1709   -12.7796 H            1 FAD1489   0.0000
    69 H7M2        42.6270    62.7154   -11.5472 H            1 FAD1489   0.0000
    70 H7M3        43.1722    61.1761   -11.5408 H            1 FAD1489   0.0000
    71 H8M1        42.5606    61.6106   -16.0472 H            1 FAD1489   0.0000
    72 H8M2        43.0868    62.6490   -14.9020 H            1 FAD1489   0.0000
    73 H8M3        43.5173    61.0751   -14.8370 H            1 FAD1489   0.0000
    74 H21         40.3934    60.9077   -15.8812 H            1 FAD1489   0.0000
    75 H1'1        38.3356    61.4259   -16.3848 H            1 FAD1489   0.0000
    76 H1'2        36.8098    60.8696   -16.2145 H            1 FAD1489   0.0000
    77 H2'         37.3671    58.8389   -17.1711 H            1 FAD1489   0.0000
    78 H25         39.6851    58.7636   -18.0047 H            1 FAD1489   0.0000
    79 H3'         38.5435    61.0017   -18.6672 H            1 FAD1489   0.0000
    80 H27         36.6607    61.8477   -18.7826 H            1 FAD1489   0.0000
    81 H4'         37.2692    58.6976   -19.8215 H            1 FAD1489   0.0000
    82 H29         39.8036    58.9192   -20.5579 H            1 FAD1489   0.0000
    83 H5'1        38.6787    60.8948   -21.0501 H            1 FAD1489   0.0000
    84 H5'2        37.0555    60.7170   -21.0656 H            1 FAD1489   0.0000
@<TRIPOS>BOND
     1    1    2      ar
     2    1    3      ar
     3    1    4       1
     4    1   53       1
     5    4    5       1
     6    5    6       1
     7    6    7       1
     8    6    8       1
     9    7   12       1
    10    8    9       1
    11    8   10       1
    12   10   11       1
    13   10   12       1
    14   12   13       1
    15   13   14       1
    16   13   22       1
    17   14   15       2
    18   15   16       1
    19   16   17      ar
    20   16   22      ar
    21   17   18       1
    22   17   19      ar
    23   19   20      ar
    24   20   21      ar
    25   21   22      ar
    26   23   24       1
    27   23   40       2
    28   24   25       2
    29   24   26       1
    30   26   27       1
    31   27   28       2
    32   27   29       1
    33   29   30       2
    34   29   40       1
    35   30   31       1
    36   31   32      ar
    37   31   38      ar
    38   32   33      ar
    39   33   34       1
    40   33   35      ar
    41   35   36       1
    42   35   37      ar
    43   37   38      ar
    44   38   39       1
    45   39   40       1
    46   39   41       1
    47   41   42       1
    48   42   43       1
    49   42   44       1
    50   44   45       1
    51   44   46       1
    52   46   47       1
    53   46   48       1
    54   48   49       1
    55   49   50       1
    56   50   51      ar
    57   50   52      ar
    58   50   53       1
    59   48   84       1
    60    5   54       1
    61    5   55       1
    62    6   56       1
    63    8   57       1
    64    9   58       1
    65   10   59       1
    66   11   60       1
    67   12   61       1
    68   14   62       1
    69   18   63       1
    70   18   64       1
    71   20   65       1
    72   26   66       1
    73   32   67       1
    74   34   68       1
    75   34   69       1
    76   34   70       1
    77   36   71       1
    78   36   72       1
    79   36   73       1
    80   37   74       1
    81   41   75       1
    82   41   76       1
    83   42   77       1
    84   43   78       1
    85   44   79       1
    86   45   80       1
    87   46   81       1
    88   47   82       1
    89   48   83       1
@<TRIPOS>SUBSTRUCTURE
     1 FAD1489     1 GROUP             4 B     FAD     0 **** FAD B1489
