#    Name: 49328
#    Modification time : Wed Aug  9 01:22:09 2017

@<TRIPOS>MOLECULE
49328
   93     0    12     0     0
SMALL
NO_CHARGES


@<TRIPOS>ATOM
      1 N         -13.7590    1.0970  -11.5160 N.am      1 SEL1        0.0000 
      2 N         -15.0710   -0.1920   -9.8790 N.am      1 SEL1        0.0000 
      3 N         -12.5530   -0.3860   -9.9490 N.am      1 SEL1        0.0000 
      4 N         -13.9380   -1.3270  -11.8560 N.am      1 SEL1        0.0000 
      5 N         -11.6180    4.8800  -10.6340 N.am      1 SEL1        0.0000 
      6 N         -10.7190    7.0620   -9.7190 N.am      1 SEL1        0.0000 
      7 N          -9.8550    4.7600   -8.8140 N.am      1 SEL1        0.0000 
      8 N          -7.3910    6.4670   -9.8590 N.am      1 SEL1        0.0000 
      9 N          -7.1650    4.2490  -11.2280 N.am      1 SEL1        0.0000 
     10 N          -3.1330    6.0130  -14.3900 N.am      1 SEL1        0.0000 
     11 N          -4.1420    4.4890  -18.6720 N.am      1 SEL1        0.0000 
     12 O         -13.6380    1.6800  -14.1540 O.2       2 ALL2        0.0000 
     13 O          -3.9180    6.7190  -18.4600 O.2       2 ALL2        0.0000 
     14 NZ        -15.0710   -0.1920   -9.8790 N.4       3 LYL3        0.0000 
     15 NZ        -12.5530   -0.3860   -9.9490 N.4       3 LYL3        0.0000 
     16 NZ        -13.9380   -1.3270  -11.8560 N.4       3 LYL3        0.0000 
     17 CA        -11.2900    2.1360  -13.9440 C.3       4 GLL5        0.0000 
     18 CA        -12.5040    1.5110  -12.0400 C.3       4 GLL5        0.0000 
     19 CA        -11.6610    3.4550  -10.6550 C.3       4 GLL5        0.0000 
     20 CA         -7.6040    5.7800  -13.6540 C.3       4 GLL5        0.0000 
     21 CA         -6.6450    5.5950  -15.9170 C.3       4 GLL5        0.0000 
     22 CA         -5.9920    7.5080  -14.4460 C.3       4 GLL5        0.0000 
     23 CA         -5.2670    5.1800  -13.8420 C.3       4 GLL5        0.0000 
     24 CA         -2.3890    5.2780  -17.2800 C.3       4 GLL5        0.0000 
     25 CA         -4.3890    6.8230  -20.8920 C.3       4 GLL5        0.0000 
     26 CA         -5.2560    7.8970  -22.0620 C.3       4 GLL5        0.0000 
     27 CA        -12.4330    1.2410  -13.5230 C.3       4 GLL5        0.0000 
     28 CA        -12.2570    3.0070  -11.9830 C.3       4 GLL5        0.0000 
     29 N         -15.9990    2.0820   -9.0610 N.am      5 SEP1        0.0000 
     30 N         -10.2870   -1.6020  -10.6530 N.am      5 SEP1        0.0000 
     31 N         -11.5050   -3.0770  -11.9310 N.am      5 SEP1        0.0000 
     32 N         -14.1400    6.3690  -11.2610 N.am      5 SEP1        0.0000 
     33 N         -10.7350    9.8320  -10.1440 N.am      5 SEP1        0.0000 
     34 N          -9.7050    5.6950   -6.2940 N.am      5 SEP1        0.0000 
     35 N          -6.7780    5.8760   -7.3610 N.am      5 SEP1        0.0000 
     36 N          -8.1560    9.0530   -9.3840 N.am      5 SEP1        0.0000 
     37 N          -6.8030    2.8850   -8.7620 N.am      5 SEP1        0.0000 
     38 N          -2.2800    8.1070  -12.6790 N.am      5 SEP1        0.0000 
     39 N          -5.8740    3.8850  -20.4290 N.am      5 SEP1        0.0000 
     40 O         -15.2340    3.0750  -16.5850 O.2       6 ALP2        0.0000 
     41 O          -2.9390    8.9580  -17.3220 O.2       6 ALP2        0.0000 
     42 NZ        -15.9990    2.0820   -9.0610 N.4       7 LYP3        0.0000 
     43 NZ        -10.3480   -2.6880  -11.4180 N.4       7 LYP3        0.0000 
     44 CA        -11.7900    5.5560  -15.7880 C.3       8 GLP5        0.0000 
     45 CA         -9.3070    0.1810   -9.2450 C.3       8 GLP5        0.0000 
     46 CA        -11.3450    6.6810  -13.5860 C.3       8 GLP5        0.0000 
     47 CA         -7.0680    1.8750  -17.3210 C.3       8 GLP5        0.0000 
     48 CA         -6.6960   11.0740  -14.2010 C.3       8 GLP5        0.0000 
     49 CA         -4.6270    8.6770  -10.8050 C.3       8 GLP5        0.0000 
     50 CA         -3.6340    7.5210  -10.6870 C.3       8 GLP5        0.0000 
     51 CA         -3.3580    3.4170  -11.0860 C.3       8 GLP5        0.0000 
     52 CA          1.5670    4.1250  -16.6710 C.3       8 GLP5        0.0000 
     53 CA         -0.4810    5.5020  -20.8610 C.3       8 GLP5        0.0000 
     54 CA          0.4710    7.0820  -14.5680 C.3       8 GLP5        0.0000 
     55 CA         -5.3880    3.3410  -21.6400 C.3       8 GLP5        0.0000 
     56 CA         -8.7140    8.4840  -20.6120 C.3       8 GLP5        0.0000 
     57 CA        -13.0940    0.6600  -17.3580 C.3       8 GLP5        0.0000 
     58 CA        -16.6300    2.6630  -11.4010 C.3       8 GLP5        0.0000 
     59 N         -14.8790    1.5895  -10.2885 N.am      9 SEC1        0.0000 
     60 N         -15.5350    0.9450   -9.4700 N.am      9 SEC1        0.0000 
     61 N         -11.4200   -0.9940  -10.3010 N.am      9 SEC1        0.0000 
     62 N         -12.7215   -2.2020  -11.8935 N.am      9 SEC1        0.0000 
     63 N         -12.8790    5.6245  -10.9475 N.am      9 SEC1        0.0000 
     64 N         -10.7270    8.4470   -9.9315 N.am      9 SEC1        0.0000 
     65 N          -9.7800    5.2275   -7.5540 N.am      9 SEC1        0.0000 
     66 N          -7.0845    6.1715   -8.6100 N.am      9 SEC1        0.0000 
     67 N          -7.7735    7.7600   -9.6215 N.am      9 SEC1        0.0000 
     68 N          -6.9840    3.5670   -9.9950 N.am      9 SEC1        0.0000 
     69 N          -2.7065    7.0600  -13.5345 N.am      9 SEC1        0.0000 
     70 N          -5.0080    4.1870  -19.5505 N.am      9 SEC1        0.0000 
     71 O         -14.4360    2.3775  -15.3695 O.2      10 ALC2        0.0000 
     72 O          -3.4285    7.8385  -17.8910 O.2      10 ALC2        0.0000 
     73 NZ        -15.5350    0.9450   -9.4700 N.4      11 LYC3        0.0000 
     74 NZ        -11.4505   -1.5370  -10.6835 N.4      11 LYC3        0.0000 
     75 NZ        -12.1430   -2.0075  -11.6370 N.4      11 LYC3        0.0000 
     76 CA        -11.5400    3.8460  -14.8660 C.3      12 GLC5        0.0000 
     77 CA        -10.9055    0.8460  -10.6425 C.3      12 GLC5        0.0000 
     78 CA        -10.4840    1.8180   -9.9500 C.3      12 GLC5        0.0000 
     79 CA         -9.4745    6.2305  -13.6200 C.3      12 GLC5        0.0000 
     80 CA         -6.8565    3.7350  -16.6190 C.3      12 GLC5        0.0000 
     81 CA         -6.3440    9.2910  -14.3235 C.3      12 GLC5        0.0000 
     82 CA         -5.3095    8.0925  -12.6255 C.3      12 GLC5        0.0000 
     83 CA         -4.4505    6.3505  -12.2645 C.3      12 GLC5        0.0000 
     84 CA         -4.3125    4.2985  -12.4640 C.3      12 GLC5        0.0000 
     85 CA         -0.4110    4.7015  -16.9755 C.3      12 GLC5        0.0000 
     86 CA         -1.4350    5.3900  -19.0705 C.3      12 GLC5        0.0000 
     87 CA         -0.9590    6.1800  -15.9240 C.3      12 GLC5        0.0000 
     88 CA         -2.4350    6.1625  -20.8765 C.3      12 GLC5        0.0000 
     89 CA         -4.8885    5.0820  -21.2660 C.3      12 GLC5        0.0000 
     90 CA         -6.9850    8.1905  -21.3370 C.3      12 GLC5        0.0000 
     91 CA        -12.4778    1.1743  -15.5457 C.3      12 GLC5        0.0000 
     92 CA        -14.5053    2.4610  -11.7063 C.3      12 GLC5        0.0000 
     93 CA        -11.6520    4.9560  -12.4525 C.3      12 GLC5        0.0000 
@<TRIPOS>BOND
@<TRIPOS>SUBSTRUCTURE
     1 SEL1        1 GROUP        1 Z    SEL  0     ROOT SEL Z 0
     2 ALL2       12 GROUP        1 Z    ALL  0     **** ALL Z 1
     3 LYL3       14 GROUP        1 Z    LYL  0     **** LYL Z 2
     4 GLL5       17 GROUP        1 Z    GLL  0     **** GLL Z 4
     5 SEP1       29 GROUP        1 Z    SEP  0     **** SEP Z 7
     6 ALP2       40 GROUP        1 Z    ALP  0     **** ALP Z 8
     7 LYP3       42 GROUP        1 Z    LYP  0     **** LYP Z 9
     8 GLP5       44 GROUP        1 Z    GLP  0     **** GLP Z 11
     9 SEC1       59 GROUP        1 Z    SEC  0     **** SEC Z 14
    10 ALC2       71 GROUP        1 Z    ALC  0     **** ALC Z 15
    11 LYC3       73 GROUP        1 Z    LYC  0     **** LYC Z 16
    12 GLC5       76 GROUP        1 Z    GLC  0     **** GLC Z 18
@<TRIPOS>SET

