4u9y_COA_1_ligand
  -OEChem-08111718373D

 80 82  0     1  0  0  0  0  0999 V2000
  -10.3598   -2.6064  -15.7495 H   0  0  0  0  0  0  0  0  0  0  0  0
   -8.9602    2.6885  -12.4950 H   0  0  0  0  0  0  0  0  0  0  0  0
  -11.7648    1.0272  -11.5715 H   0  0  0  0  0  0  0  0  0  0  0  0
  -12.2418    0.2787  -13.7165 H   0  0  0  0  0  0  0  0  0  0  0  0
  -13.1127    3.4966  -12.1507 H   0  0  0  0  0  0  0  0  0  0  0  0
  -11.3728    2.4165  -14.9003 H   0  0  0  0  0  0  0  0  0  0  0  0
   -5.8339    5.7544  -16.4798 H   0  0  0  0  0  0  0  0  0  0  0  0
   -6.8738    4.6216  -15.9302 H   0  0  0  0  0  0  0  0  0  0  0  0
   -7.4124    6.1227  -16.2811 H   0  0  0  0  0  0  0  0  0  0  0  0
   -5.1721    7.6604  -14.9978 H   0  0  0  0  0  0  0  0  0  0  0  0
   -6.7469    8.0511  -14.8136 H   0  0  0  0  0  0  0  0  0  0  0  0
   -5.8135    7.7820  -13.5010 H   0  0  0  0  0  0  0  0  0  0  0  0
   -1.5643    5.1103  -17.8201 H   0  0  0  0  0  0  0  0  0  0  0  0
   -2.2666    6.1061  -16.7330 H   0  0  0  0  0  0  0  0  0  0  0  0
  -10.7354    3.0885  -10.5603 H   0  0  0  0  0  0  0  0  0  0  0  0
  -12.2293    3.1239   -9.9018 H   0  0  0  0  0  0  0  0  0  0  0  0
   -2.7163    3.2644  -16.9101 H   0  0  0  0  0  0  0  0  0  0  0  0
   -1.8560    4.0026  -15.7347 H   0  0  0  0  0  0  0  0  0  0  0  0
   -5.1068    8.0503  -19.3834 H   0  0  0  0  0  0  0  0  0  0  0  0
   -5.7208    6.5380  -19.3292 H   0  0  0  0  0  0  0  0  0  0  0  0
   -8.4088    6.1342  -14.1302 H   0  0  0  0  0  0  0  0  0  0  0  0
   -7.7147    4.7986  -13.4970 H   0  0  0  0  0  0  0  0  0  0  0  0
   -4.5548    5.8672  -21.1349 H   0  0  0  0  0  0  0  0  0  0  0  0
   -3.4079    7.0122  -20.9337 H   0  0  0  0  0  0  0  0  0  0  0  0
   -5.0770    5.5427  -12.9297 H   0  0  0  0  0  0  0  0  0  0  0  0
   -6.1094   -1.2912  -12.9666 H   0  0  0  0  0  0  0  0  0  0  0  0
   -6.2933   -2.8064  -13.7854 H   0  0  0  0  0  0  0  0  0  0  0  0
   -3.4927    7.4502  -17.9266 H   0  0  0  0  0  0  0  0  0  0  0  0
   -4.5952    3.5844  -15.7060 H   0  0  0  0  0  0  0  0  0  0  0  0
  -13.4192    2.0993  -15.0351 H   0  0  0  0  0  0  0  0  0  0  0  0
   -6.1929    3.7298  -12.8224 H   0  0  0  0  0  0  0  0  0  0  0  0
   -6.1767    8.0869  -21.7210 H   0  0  0  0  0  0  0  0  0  0  0  0
   -9.8450   -1.9630  -15.1830 C   0  0  0  0  0  0  0  0  0  0  0  0
   -9.0010    1.8010  -12.9540 C   0  0  0  0  0  0  0  0  0  0  0  0
   -8.4310   -0.1930  -13.6210 C   0  0  0  0  0  0  0  0  0  0  0  0
   -9.7660    0.1430  -14.1370 C   0  0  0  0  0  0  0  0  0  0  0  0
   -7.8760   -1.5230  -13.9730 C   0  0  0  0  0  0  0  0  0  0  0  0
   -3.5660    5.4600  -18.2070 C   0  0  0  0  0  0  0  0  0  0  0  0
   -3.9880    5.1750  -14.6300 C   0  0  0  0  0  0  0  0  0  0  0  0
  -12.5040    1.5110  -12.0400 C   0  0  1  0  0  0  0  0  0  0  0  0
  -12.4330    1.2410  -13.5230 C   0  0  2  0  0  0  0  0  0  0  0  0
  -12.2570    3.0070  -11.9830 C   0  0  1  0  0  0  0  0  0  0  0  0
  -11.2900    2.1360  -13.9440 C   0  0  2  0  0  0  0  0  0  0  0  0
   -6.6450    5.5950  -15.9170 C   0  0  0  0  0  0  0  0  0  0  0  0
   -5.9920    7.5080  -14.4460 C   0  0  0  0  0  0  0  0  0  0  0  0
   -2.3890    5.2780  -17.2800 C   0  0  1  0  0  0  0  0  0  0  0  0
  -11.6610    3.4550  -10.6550 C   0  0  2  0  0  0  0  0  0  0  0  0
   -2.6370    4.0910  -16.3530 C   0  0  1  0  0  0  0  0  0  0  0  0
   -4.8920    7.0780  -19.4760 C   0  0  1  0  0  0  0  0  0  0  0  0
   -7.6040    5.7800  -13.6540 C   0  0  1  0  0  0  0  0  0  0  0  0
   -4.3890    6.8230  -20.8920 C   0  0  2  0  0  0  0  0  0  0  0  0
   -5.2670    5.1800  -13.8420 C   0  0  1  0  0  0  0  0  0  0  0  0
   -6.3630    6.0310  -14.4850 C   0  0  1  0  0  0  0  0  0  0  0  0
  -10.4070   -0.7740  -14.9030 N   0  0  0  0  0  0  0  0  0  0  0  0
   -8.6290   -2.3360  -14.7440 N   0  0  0  0  0  0  0  0  0  0  0  0
   -8.0180    0.8670  -12.9040 N   0  0  0  0  0  0  0  0  0  0  0  0
  -10.0380    1.3790  -13.7010 N   0  0  0  0  0  0  0  0  0  0  0  0
   -6.6530   -1.9070  -13.5370 N   0  0  0  0  0  0  0  0  0  0  0  0
   -3.9180    6.7190  -18.4600 N   0  0  0  0  0  0  0  0  0  0  0  0
   -3.8440    4.2270  -15.5550 N   0  0  0  0  0  0  0  0  0  0  0  0
  -12.5530   -0.3860   -9.9490 O   0  5  0  0  0  0  0  0  0  0  0  0
  -13.9380   -1.3270  -11.8560 O   0  5  0  0  0  0  0  0  0  0  0  0
   -9.8550    4.7600   -8.8140 O   0  5  0  0  0  0  0  0  0  0  0  0
   -7.1650    4.2490  -11.2280 O   0  5  0  0  0  0  0  0  0  0  0  0
   -4.1420    4.4890  -18.6720 O   0  0  0  0  0  0  0  0  0  0  0  0
   -3.1330    6.0130  -14.3900 O   0  0  0  0  0  0  0  0  0  0  0  0
  -15.0710   -0.1920   -9.8790 O   0  0  0  0  0  0  0  0  0  0  0  0
  -10.7190    7.0620   -9.7190 O   0  0  0  0  0  0  0  0  0  0  0  0
   -7.3910    6.4670   -9.8590 O   0  0  0  0  0  0  0  0  0  0  0  0
  -11.3360    3.2600  -13.0560 O   0  0  0  0  0  0  0  0  0  0  0  0
  -13.6380    1.6800  -14.1540 O   0  0  0  0  0  0  0  0  0  0  0  0
   -5.7410    3.8370  -13.7080 O   0  0  0  0  0  0  0  0  0  0  0  0
  -13.7590    1.0970  -11.5160 O   0  0  0  0  0  0  0  0  0  0  0  0
  -11.6180    4.8800  -10.6340 O   0  0  0  0  0  0  0  0  0  0  0  0
   -7.4430    6.4540  -12.4090 O   0  0  0  0  0  0  0  0  0  0  0  0
   -9.3490    5.5380  -11.1920 O   0  0  0  0  0  0  0  0  0  0  0  0
  -13.8390   -0.3150  -10.7380 P   0  0  0  0  0  0  0  0  0  0  0  0
  -10.3640    5.6120   -9.9480 P   0  0  2  0  0  0  0  0  0  0  0  0
   -7.7500    5.6300  -11.0630 P   0  0  1  0  0  0  0  0  0  0  0  0
   -5.2560    7.8970  -22.0620 S   0  0  0  0  0  0  0  0  0  0  0  0
  1 33  1  0  0  0  0
  2 34  1  0  0  0  0
  3 40  1  0  0  0  0
  4 41  1  0  0  0  0
  5 42  1  0  0  0  0
  6 43  1  0  0  0  0
  7 44  1  0  0  0  0
  8 44  1  0  0  0  0
  9 44  1  0  0  0  0
 10 45  1  0  0  0  0
 11 45  1  0  0  0  0
 12 45  1  0  0  0  0
 13 46  1  0  0  0  0
 14 46  1  0  0  0  0
 15 47  1  0  0  0  0
 16 47  1  0  0  0  0
 17 48  1  0  0  0  0
 18 48  1  0  0  0  0
 19 49  1  0  0  0  0
 20 49  1  0  0  0  0
 21 50  1  0  0  0  0
 22 50  1  0  0  0  0
 23 51  1  0  0  0  0
 24 51  1  0  0  0  0
 25 52  1  0  0  0  0
 26 58  1  0  0  0  0
 27 58  1  0  0  0  0
 28 59  1  0  0  0  0
 29 60  1  0  0  0  0
 30 71  1  0  0  0  0
 31 72  1  0  0  0  0
 32 80  1  0  0  0  0
 33 54  1  0  0  0  0
 33 55  2  0  0  0  0
 34 56  2  0  0  0  0
 34 57  1  0  0  0  0
 35 36  1  0  0  0  0
 35 37  2  0  0  0  0
 35 56  1  0  0  0  0
 36 54  2  0  0  0  0
 36 57  1  0  0  0  0
 37 55  1  0  0  0  0
 37 58  1  0  0  0  0
 38 46  1  0  0  0  0
 38 59  1  0  0  0  0
 38 65  2  0  0  0  0
 39 52  1  0  0  0  0
 39 60  1  0  0  0  0
 39 66  2  0  0  0  0
 40 41  1  0  0  0  0
 40 42  1  0  0  0  0
 40 73  1  0  0  0  0
 41 43  1  0  0  0  0
 41 71  1  0  0  0  0
 42 47  1  0  0  0  0
 42 70  1  0  0  0  0
 43 57  1  0  0  0  0
 43 70  1  0  0  0  0
 44 53  1  0  0  0  0
 45 53  1  0  0  0  0
 46 48  1  0  0  0  0
 47 74  1  0  0  0  0
 48 60  1  0  0  0  0
 49 51  1  0  0  0  0
 49 59  1  0  0  0  0
 50 53  1  0  0  0  0
 50 75  1  0  0  0  0
 51 80  1  0  0  0  0
 52 53  1  0  0  0  0
 52 72  1  0  0  0  0
 61 77  1  0  0  0  0
 62 77  1  0  0  0  0
 63 78  1  0  0  0  0
 64 79  1  0  0  0  0
 67 77  2  0  0  0  0
 68 78  2  0  0  0  0
 69 79  2  0  0  0  0
 73 77  1  0  0  0  0
 74 78  1  0  0  0  0
 75 79  1  0  0  0  0
 76 78  1  0  0  0  0
 76 79  1  0  0  0  0
M  CHG  4  61  -1  62  -1  63  -1  64  -1
M  END
> <scpdb_id>
4u9y_1

$$$$
