@<TRIPOS>MOLECULE
4u9y_COA_1_ligand
   80    82     1     0     0
SMALL
NO_CHARGES


@<TRIPOS>ATOM
     1 N1A         -8.6290    -2.3360   -14.7440 N.ar         1 COA201   0.0000
     2 C2A         -9.8450    -1.9630   -15.1830 C.ar         1 COA201   0.0000
     3 N3A        -10.4070    -0.7740   -14.9030 N.ar         1 COA201   0.0000
     4 C4A         -9.7660     0.1430   -14.1370 C.ar         1 COA201   0.0000
     5 C5A         -8.4310    -0.1930   -13.6210 C.ar         1 COA201   0.0000
     6 C6A         -7.8760    -1.5230   -13.9730 C.ar         1 COA201   0.0000
     7 N6A         -6.6530    -1.9070   -13.5370 N.pl3        1 COA201   0.0000
     8 N7A         -8.0180     0.8670   -12.9040 N.2          1 COA201   0.0000
     9 C8A         -9.0010     1.8010   -12.9540 C.2          1 COA201   0.0000
    10 N9A        -10.0380     1.3790   -13.7010 N.pl3        1 COA201   0.0000
    11 C1B        -11.2900     2.1360   -13.9440 C.3          1 COA201   0.0000
    12 C2B        -12.4330     1.2410   -13.5230 C.3          1 COA201   0.0000
    13 O2B        -13.6380     1.6800   -14.1540 O.3          1 COA201   0.0000
    14 C3B        -12.5040     1.5110   -12.0400 C.3          1 COA201   0.0000
    15 O3B        -13.7590     1.0970   -11.5160 O.3          1 COA201   0.0000
    16 P3B        -13.8390    -0.3150   -10.7380 P.3          1 COA201   0.0000
    17 O7A        -15.0710    -0.1920    -9.8790 O.co2        1 COA201   0.0000
    18 O8A        -12.5530    -0.3860    -9.9490 O.co2        1 COA201  -1.0000
    19 O9A        -13.9380    -1.3270   -11.8560 O.co2        1 COA201  -1.0000
    20 C4B        -12.2570     3.0070   -11.9830 C.3          1 COA201   0.0000
    21 O4B        -11.3360     3.2600   -13.0560 O.3          1 COA201   0.0000
    22 C5B        -11.6610     3.4550   -10.6550 C.3          1 COA201   0.0000
    23 O5B        -11.6180     4.8800   -10.6340 O.3          1 COA201   0.0000
    24 P1A        -10.3640     5.6120    -9.9480 P.3          1 COA201   0.0000
    25 O1A        -10.7190     7.0620    -9.7190 O.co2        1 COA201   0.0000
    26 O2A         -9.8550     4.7600    -8.8140 O.co2        1 COA201  -1.0000
    27 O3A         -9.3490     5.5380   -11.1920 O.3          1 COA201   0.0000
    28 P2A         -7.7500     5.6300   -11.0630 P.3          1 COA201   0.0000
    29 O4A         -7.3910     6.4670    -9.8590 O.co2        1 COA201   0.0000
    30 O5A         -7.1650     4.2490   -11.2280 O.co2        1 COA201  -1.0000
    31 O6A         -7.4430     6.4540   -12.4090 O.3          1 COA201   0.0000
    32 CBP         -6.3630     6.0310   -14.4850 C.3          1 COA201   0.0000
    33 CCP         -7.6040     5.7800   -13.6540 C.3          1 COA201   0.0000
    34 CDP         -6.6450     5.5950   -15.9170 C.3          1 COA201   0.0000
    35 CEP         -5.9920     7.5080   -14.4460 C.3          1 COA201   0.0000
    36 CAP         -5.2670     5.1800   -13.8420 C.3          1 COA201   0.0000
    37 OAP         -5.7410     3.8370   -13.7080 O.3          1 COA201   0.0000
    38 C9P         -3.9880     5.1750   -14.6300 C.2          1 COA201   0.0000
    39 O9P         -3.1330     6.0130   -14.3900 O.2          1 COA201   0.0000
    40 N8P         -3.8440     4.2270   -15.5550 N.am         1 COA201   0.0000
    41 C7P         -2.6370     4.0910   -16.3530 C.3          1 COA201   0.0000
    42 C6P         -2.3890     5.2780   -17.2800 C.3          1 COA201   0.0000
    43 C5P         -3.5660     5.4600   -18.2070 C.2          1 COA201   0.0000
    44 O5P         -4.1420     4.4890   -18.6720 O.2          1 COA201   0.0000
    45 N4P         -3.9180     6.7190   -18.4600 N.am         1 COA201   0.0000
    46 C3P         -4.8920     7.0780   -19.4760 C.3          1 COA201   0.0000
    47 C2P         -4.3890     6.8230   -20.8920 C.3          1 COA201   0.0000
    48 S1P         -5.2560     7.8970   -22.0620 S.3          1 COA201   0.0000
    49 H2A        -10.3598    -2.6064   -15.7495 H            1 COA201   0.0000
    50 H6A1        -6.1094    -1.2912   -12.9666 H            1 COA201   0.0000
    51 H6A2        -6.2933    -2.8064   -13.7854 H            1 COA201   0.0000
    52 H8A         -8.9602     2.6885   -12.4950 H            1 COA201   0.0000
    53 H1B        -11.3728     2.4165   -14.9003 H            1 COA201   0.0000
    54 H2B        -12.2418     0.2787   -13.7165 H            1 COA201   0.0000
    55 H7         -13.4192     2.0993   -15.0351 H            1 COA201   0.0000
    56 H3B        -11.7648     1.0272   -11.5715 H            1 COA201   0.0000
    57 H4B        -13.1127     3.4966   -12.1507 H            1 COA201   0.0000
    58 H5B1       -10.7354     3.0885   -10.5603 H            1 COA201   0.0000
    59 H5B2       -12.2293     3.1239    -9.9018 H            1 COA201   0.0000
    60 HCP1        -8.4088     6.1342   -14.1302 H            1 COA201   0.0000
    61 HCP2        -7.7147     4.7986   -13.4970 H            1 COA201   0.0000
    62 HDP1        -5.8339     5.7544   -16.4798 H            1 COA201   0.0000
    63 HDP2        -6.8738     4.6216   -15.9302 H            1 COA201   0.0000
    64 HDP3        -7.4124     6.1227   -16.2811 H            1 COA201   0.0000
    65 HEP1        -5.1721     7.6604   -14.9978 H            1 COA201   0.0000
    66 HEP2        -6.7469     8.0511   -14.8136 H            1 COA201   0.0000
    67 HEP3        -5.8135     7.7820   -13.5010 H            1 COA201   0.0000
    68 HAP         -5.0770     5.5427   -12.9297 H            1 COA201   0.0000
    69 H21         -6.1929     3.7298   -12.8224 H            1 COA201   0.0000
    70 H8P         -4.5952     3.5844   -15.7060 H            1 COA201   0.0000
    71 H7P1        -2.7163     3.2644   -16.9101 H            1 COA201   0.0000
    72 H7P2        -1.8560     4.0026   -15.7347 H            1 COA201   0.0000
    73 H6P1        -1.5643     5.1103   -17.8201 H            1 COA201   0.0000
    74 H6P2        -2.2666     6.1061   -16.7330 H            1 COA201   0.0000
    75 H4P         -3.4927     7.4502   -17.9266 H            1 COA201   0.0000
    76 H3P1        -5.1068     8.0503   -19.3834 H            1 COA201   0.0000
    77 H3P2        -5.7208     6.5380   -19.3292 H            1 COA201   0.0000
    78 H2P1        -4.5548     5.8672   -21.1349 H            1 COA201   0.0000
    79 H2P2        -3.4079     7.0122   -20.9337 H            1 COA201   0.0000
    80 H1P         -6.1767     8.0869   -21.7210 H            1 COA201   0.0000
@<TRIPOS>BOND
     1    1    2      ar
     2    1    6      ar
     3    2    3      ar
     4    3    4      ar
     5    4    5      ar
     6    4   10       1
     7    5    6      ar
     8    5    8       1
     9    6    7       1
    10    8    9       2
    11    9   10       1
    12   10   11       1
    13   11   12       1
    14   11   21       1
    15   12   13       1
    16   12   14       1
    17   14   15       1
    18   14   20       1
    19   15   16       1
    20   16   17      ar
    21   16   18      ar
    22   16   19      ar
    23   20   21       1
    24   20   22       1
    25   22   23       1
    26   23   24       1
    27   24   25      ar
    28   24   26      ar
    29   24   27       1
    30   27   28       1
    31   28   29      ar
    32   28   30      ar
    33   28   31       1
    34   31   33       1
    35   32   33       1
    36   32   34       1
    37   32   35       1
    38   32   36       1
    39   36   37       1
    40   36   38       1
    41   38   39       2
    42   38   40      am
    43   40   41       1
    44   41   42       1
    45   42   43       1
    46   43   44       2
    47   43   45      am
    48   45   46       1
    49   46   47       1
    50   47   48       1
    51    2   49       1
    52    7   50       1
    53    7   51       1
    54    9   52       1
    55   11   53       1
    56   12   54       1
    57   13   55       1
    58   14   56       1
    59   48   80       1
    60   47   79       1
    61   20   57       1
    62   22   58       1
    63   22   59       1
    64   47   78       1
    65   46   77       1
    66   33   60       1
    67   33   61       1
    68   34   62       1
    69   34   63       1
    70   34   64       1
    71   35   65       1
    72   35   66       1
    73   35   67       1
    74   36   68       1
    75   37   69       1
    76   40   70       1
    77   41   71       1
    78   41   72       1
    79   42   73       1
    80   42   74       1
    81   45   75       1
    82   46   76       1
@<TRIPOS>SUBSTRUCTURE
     1 COA201      1 GROUP             4 A     COA     0 **** COA A 201
