#    Name: 22018
#    Modification time : Tue Aug  8 19:11:33 2017

@<TRIPOS>MOLECULE
22018
   24     0     6     0     0
SMALL
NO_CHARGES


@<TRIPOS>ATOM
      1 N          52.0880   14.6320  -32.2660 N.am      1 SEL1        0.0000 
      2 CA         51.4520   18.4570  -27.4760 C.3       2 GLL5        0.0000 
      3 CA         53.9440   16.1650  -33.1990 C.3       2 GLL5        0.0000 
      4 CA         53.1620   13.6400  -34.4730 C.3       2 GLL5        0.0000 
      5 N          50.9580   11.9910  -32.4560 N.am      3 SEP1        0.0000 
      6 CA         48.1920   20.5200  -27.3810 C.3       4 GLP5        0.0000 
      7 CA         49.0510   15.8480  -27.1960 C.3       4 GLP5        0.0000 
      8 CA         52.9440   21.5480  -25.9530 C.3       4 GLP5        0.0000 
      9 CA         51.3080   17.7860  -23.7840 C.3       4 GLP5        0.0000 
     10 CA         57.1950   18.4980  -31.3230 C.3       4 GLP5        0.0000 
     11 CA         57.4230   14.7440  -33.5690 C.3       4 GLP5        0.0000 
     12 CA         49.4890   15.0560  -34.9910 C.3       4 GLP5        0.0000 
     13 CA         54.9290   14.4830  -37.5610 C.3       4 GLP5        0.0000 
     14 CA         56.9710   13.3070  -33.6810 C.3       4 GLP5        0.0000 
     15 N          51.5230   13.3115  -32.3610 N.am      5 SEC1        0.0000 
     16 CA         49.8220   19.4885  -27.4285 C.3       6 GLC5        0.0000 
     17 CA         50.2515   17.1525  -27.3360 C.3       6 GLC5        0.0000 
     18 CA         52.1980   20.0025  -26.7145 C.3       6 GLC5        0.0000 
     19 CA         51.3800   18.1215  -25.6300 C.3       6 GLC5        0.0000 
     20 CA         55.5695   17.3315  -32.2610 C.3       6 GLC5        0.0000 
     21 CA         55.6835   15.4545  -33.3840 C.3       6 GLC5        0.0000 
     22 CA         51.3255   14.3480  -34.7320 C.3       6 GLC5        0.0000 
     23 CA         54.0455   14.0615  -36.0170 C.3       6 GLC5        0.0000 
     24 CA         55.0665   13.4735  -34.0770 C.3       6 GLC5        0.0000 
@<TRIPOS>BOND
@<TRIPOS>SUBSTRUCTURE
     1 SEL1        1 GROUP        1 Z    SEL  0     ROOT SEL Z 0
     2 GLL5        2 GROUP        1 Z    GLL  0     **** GLL Z 4
     3 SEP1        5 GROUP        1 Z    SEP  0     **** SEP Z 7
     4 GLP5        6 GROUP        1 Z    GLP  0     **** GLP Z 11
     5 SEC1       15 GROUP        1 Z    SEC  0     **** SEC Z 14
     6 GLC5       16 GROUP        1 Z    GLC  0     **** GLC Z 18
@<TRIPOS>SET

