@<TRIPOS>MOLECULE
2zjv_CT4_4_ligand
   23    23     1     0     0
SMALL
NO_CHARGES


@<TRIPOS>ATOM
     1 N           52.9690    18.0770   -29.7590 N.2          1 CT4301   0.0000
     2 C           53.7210    17.9720   -28.5910 C.2          1 CT4301   0.0000
     3 N1          52.8740    18.1770   -27.5100 N.pl3        1 CT4301   0.0000
     4 N2          55.0220    17.7210   -28.6990 N.pl3        1 CT4301   0.0000
     5 C1          53.5090    17.9330   -31.1020 C.3          1 CT4301   0.0000
     6 C2          53.1410    16.6590   -31.7720 C.2          1 CT4301   0.0000
     7 C3          51.4520    18.4570   -27.4760 C.3          1 CT4301   0.0000
     8 S           53.9440    16.1650   -33.1990 S.3          1 CT4301   0.0000
     9 C4          52.9720    14.7780   -33.2260 C.2          1 CT4301   0.0000
    10 N4          52.0880    14.6320   -32.2660 N.2          1 CT4301   0.0000
    11 C5          52.1880    15.7190   -31.4300 C.2          1 CT4301   0.0000
    12 CL          53.1620    13.6400   -34.4730 Cl           1 CT4301   0.0000
    13 N5          55.8370    17.6170   -27.6230 N.2          1 CT4301   1.0000
    14 O1          57.0460    17.3820   -27.8340 O.co2        1 CT4301   0.0000
    15 O2          55.3820    17.7650   -26.4680 O.co2        1 CT4301  -1.0000
    16 H1          55.4143    17.6044   -29.6114 H            1 CT4301   0.0000
    17 H2          54.5063    17.9814   -31.0461 H            1 CT4301   0.0000
    18 H3          53.1692    18.6903   -31.6597 H            1 CT4301   0.0000
    19 H4          51.1532    18.5498   -26.5262 H            1 CT4301   0.0000
    20 H5          51.2680    19.3079   -27.9680 H            1 CT4301   0.0000
    21 H6          50.9540    17.7064   -27.9103 H            1 CT4301   0.0000
    22 H7          51.6062    15.8229   -30.6233 H            1 CT4301   0.0000
    23 H8          53.3142    18.1230   -26.6137 H            1 CT4301   0.0000
@<TRIPOS>BOND
     1    1    2       2
     2    1    5       1
     3    2    3       1
     4    2    4       1
     5    3    7       1
     6    4   13       1
     7    5    6       1
     8    6    8       1
     9    6   11       2
    10    8    9       1
    11    9   10       2
    12    9   12       1
    13   10   11       1
    14   13   14      ar
    15   13   15      ar
    16   11   22       1
    17    4   16       1
    18    5   17       1
    19    5   18       1
    20    7   19       1
    21    7   20       1
    22    7   21       1
    23    3   23       1
@<TRIPOS>SUBSTRUCTURE
     1 CT4301      1 GROUP             4 D     CT4     0 **** CT4 D 301
