2zjv_CT4_4_ligand
  -OEChem-08111718373D

 23 23  0     1  0  0  0  0  0999 V2000
   51.6062   15.8229  -30.6233 H   0  0  0  0  0  0  0  0  0  0  0  0
   51.1532   18.5498  -26.5262 H   0  0  0  0  0  0  0  0  0  0  0  0
   51.2680   19.3079  -27.9680 H   0  0  0  0  0  0  0  0  0  0  0  0
   50.9540   17.7064  -27.9103 H   0  0  0  0  0  0  0  0  0  0  0  0
   54.5063   17.9814  -31.0461 H   0  0  0  0  0  0  0  0  0  0  0  0
   53.1692   18.6903  -31.6597 H   0  0  0  0  0  0  0  0  0  0  0  0
   53.3142   18.1230  -26.6137 H   0  0  0  0  0  0  0  0  0  0  0  0
   55.4143   17.6044  -29.6114 H   0  0  0  0  0  0  0  0  0  0  0  0
   52.1880   15.7190  -31.4300 C   0  0  0  0  0  0  0  0  0  0  0  0
   53.1410   16.6590  -31.7720 C   0  0  0  0  0  0  0  0  0  0  0  0
   52.9720   14.7780  -33.2260 C   0  0  0  0  0  0  0  0  0  0  0  0
   53.7210   17.9720  -28.5910 C   0  0  0  0  0  0  0  0  0  0  0  0
   51.4520   18.4570  -27.4760 C   0  0  0  0  0  0  0  0  0  0  0  0
   53.5090   17.9330  -31.1020 C   0  0  1  0  0  0  0  0  0  0  0  0
   52.0880   14.6320  -32.2660 N   0  0  0  0  0  0  0  0  0  0  0  0
   52.9690   18.0770  -29.7590 N   0  0  0  0  0  0  0  0  0  0  0  0
   52.8740   18.1770  -27.5100 N   0  0  0  0  0  0  0  0  0  0  0  0
   55.0220   17.7210  -28.6990 N   0  0  0  0  0  0  0  0  0  0  0  0
   55.8370   17.6170  -27.6230 N   0  3  0  0  0  0  0  0  0  0  0  0
   55.3820   17.7650  -26.4680 O   0  5  0  0  0  0  0  0  0  0  0  0
   57.0460   17.3820  -27.8340 O   0  0  0  0  0  0  0  0  0  0  0  0
   53.9440   16.1650  -33.1990 S   0  0  0  0  0  0  0  0  0  0  0  0
   53.1620   13.6400  -34.4730 Cl  0  0  0  0  0  0  0  0  0  0  0  0
  1  9  1  0  0  0  0
  2 13  1  0  0  0  0
  3 13  1  0  0  0  0
  4 13  1  0  0  0  0
  5 14  1  0  0  0  0
  6 14  1  0  0  0  0
  7 17  1  0  0  0  0
  8 18  1  0  0  0  0
  9 10  2  0  0  0  0
  9 15  1  0  0  0  0
 10 14  1  0  0  0  0
 10 22  1  0  0  0  0
 11 15  2  0  0  0  0
 11 22  1  0  0  0  0
 11 23  1  0  0  0  0
 12 16  2  0  0  0  0
 12 17  1  0  0  0  0
 12 18  1  0  0  0  0
 13 17  1  0  0  0  0
 14 16  1  0  0  0  0
 18 19  1  0  0  0  0
 19 20  1  0  0  0  0
 19 21  2  0  0  0  0
M  CHG  2  19   1  20  -1
M  END
> <scpdb_id>
2zjv_4

$$$$
