#    Name: 18570
#    Modification time : Wed Aug  9 00:11:12 2017

@<TRIPOS>MOLECULE
18570
   49     0     6     0     0
SMALL
NO_CHARGES


@<TRIPOS>ATOM
      1 O          10.3040  -12.9490   24.3330 O.2       1 ALL2        0.0000 
      2 O          15.0380  -11.4860   20.8980 O.2       1 ALL2        0.0000 
      3 O          17.3490  -16.1960   24.1720 O.2       1 ALL2        0.0000 
      4 CA         12.9150  -10.4740   21.4530 C.3       2 GLL5        0.0000 
      5 CA         20.1610  -13.2430   19.6960 C.3       2 GLL5        0.0000 
      6 CA         22.1470  -14.5890   25.5970 C.3       2 GLL5        0.0000 
      7 CA         20.9160  -14.0200   26.0160 C.3       2 GLL5        0.0000 
      8 CA         17.6690  -16.4360   26.8250 C.3       2 GLL5        0.0000 
      9 CA         18.0500  -13.6860   21.4320 C.3       2 GLL5        0.0000 
     10 CA         19.3340  -14.1170   21.0090 C.3       2 GLL5        0.0000 
     11 CA         18.8830  -18.3030   26.6480 C.3       2 GLL5        0.0000 
     12 CA         19.7770  -14.8320   26.1720 C.3       2 GLL5        0.0000 
     13 CA         19.8580  -16.2290   25.9150 C.3       2 GLL5        0.0000 
     14 CA         16.1630  -13.9770   22.9160 C.3       2 GLL5        0.0000 
     15 O          10.4870  -15.7370   24.2710 O.2       3 ALP2        0.0000 
     16 O           8.0830  -12.5610   25.9130 O.2       3 ALP2        0.0000 
     17 O          16.6310   -9.3830   22.4240 O.2       3 ALP2        0.0000 
     18 O          14.7040  -15.2950   25.0880 O.2       3 ALP2        0.0000 
     19 CA         12.4010   -6.7940   21.8210 C.3       4 GLP5        0.0000 
     20 CA         21.6870   -9.3750   19.2320 C.3       4 GLP5        0.0000 
     21 CA         22.9930  -15.5150   18.9220 C.3       4 GLP5        0.0000 
     22 CA         18.9870  -15.5450   16.8870 C.3       4 GLP5        0.0000 
     23 CA         20.8390  -11.3370   23.1400 C.3       4 GLP5        0.0000 
     24 CA         22.2600  -11.1400   23.6890 C.3       4 GLP5        0.0000 
     25 CA         19.9580  -16.2800   30.2370 C.3       4 GLP5        0.0000 
     26 CA         17.1410  -13.0940   27.7900 C.3       4 GLP5        0.0000 
     27 CA         21.1060  -17.0520   29.6010 C.3       4 GLP5        0.0000 
     28 CA         17.3770  -11.5000   24.8940 C.3       4 GLP5        0.0000 
     29 CA         15.0180  -17.3570   28.3700 C.3       4 GLP5        0.0000 
     30 O          10.3955  -14.3430   24.3020 O.2       5 ALC2        0.0000 
     31 O           9.1935  -12.7550   25.1230 O.2       5 ALC2        0.0000 
     32 O          15.8345  -10.4345   21.6610 O.2       5 ALC2        0.0000 
     33 O          16.0265  -15.7455   24.6300 O.2       5 ALC2        0.0000 
     34 CA         12.6580   -8.6340   21.6370 C.3       6 GLC5        0.0000 
     35 CA         20.9240  -11.3090   19.4640 C.3       6 GLC5        0.0000 
     36 CA         21.5770  -14.3790   19.3090 C.3       6 GLC5        0.0000 
     37 CA         19.5740  -14.3940   18.2915 C.3       6 GLC5        0.0000 
     38 CA         20.5000  -12.2900   21.4180 C.3       6 GLC5        0.0000 
     39 CA         22.2035  -12.8645   24.6430 C.3       6 GLC5        0.0000 
     40 CA         20.8775  -12.6785   24.5780 C.3       6 GLC5        0.0000 
     41 CA         18.8135  -16.3580   28.5310 C.3       6 GLC5        0.0000 
     42 CA         17.4050  -14.7650   27.3075 C.3       6 GLC5        0.0000 
     43 CA         19.2892  -12.2070   22.1125 C.3       6 GLC5        0.0000 
     44 CA         20.2432  -13.0045   22.2267 C.3       6 GLC5        0.0000 
     45 CA         19.9225  -17.3775   27.9802 C.3       6 GLC5        0.0000 
     46 CA         18.8618  -12.9630   25.4940 C.3       6 GLC5        0.0000 
     47 CA         20.7004  -16.6625   27.6944 C.3       6 GLC5        0.0000 
     48 CA         16.7267  -17.2966   27.3869 C.3       6 GLC5        0.0000 
     49 CA         17.4059  -12.9699   23.7017 C.3       6 GLC5        0.0000 
@<TRIPOS>BOND
@<TRIPOS>SUBSTRUCTURE
     1 ALL2        1 GROUP        1 Z    ALL  0     ROOT ALL Z 1
     2 GLL5        4 GROUP        1 Z    GLL  0     **** GLL Z 4
     3 ALP2       15 GROUP        1 Z    ALP  0     **** ALP Z 8
     4 GLP5       19 GROUP        1 Z    GLP  0     **** GLP Z 11
     5 ALC2       30 GROUP        1 Z    ALC  0     **** ALC Z 15
     6 GLC5       34 GROUP        1 Z    GLC  0     **** GLC Z 18
@<TRIPOS>SET

