@<TRIPOS>MOLECULE
2r2m_I50_1_ligand
   51    52     1     0     0
SMALL
NO_CHARGES


@<TRIPOS>ATOM
     1 C1          11.2820   -11.8930    24.1440 C.2          1 I505000   0.0000
     2 O5          12.8320   -10.8210    22.8090 O.3          1 I505000   0.0000
     3 C7          13.5960   -11.6280    20.7120 C.3          1 I505000   0.0000
     4 C9          15.9110   -12.6250    20.6430 C.2          1 I505000   0.0000
     5 C11         17.4290   -12.4680    20.7380 C.3          1 I505000   0.0000
     6 C12         18.0500   -13.6860    21.4320 C.ar         1 I505000   0.0000
     7 C13         17.3890   -14.3750    22.4770 C.ar         1 I505000   0.0000
     8 C14         18.0100   -15.4820    23.0830 C.ar         1 I505000   0.0000
     9 C15         19.2980   -15.9110    22.6540 C.ar         1 I505000   0.0000
    10 C16         19.9610   -15.2270    21.6180 C.ar         1 I505000   0.0000
    11 C21         17.9920   -17.4000    24.6850 C.3          1 I505000   0.0000
    12 C24         18.5950   -17.1030    26.0710 C.3          1 I505000   0.0000
    13 C27         22.2290   -15.9830    25.3400 C.ar         1 I505000   0.0000
    14 C30         19.7770   -14.8320    26.1720 C.ar         1 I505000   0.0000
    15 N2          11.0940   -10.7580    24.6540 N.2          1 I505000   0.0000
    16 N3          10.3040   -12.9490    24.3330 N.pl3        1 I505000   0.0000
    17 N4          12.3530   -12.0830    23.1850 N.pl3        1 I505000   0.0000
    18 C6          12.9150   -10.4740    21.4530 C.3          1 I505000   0.0000
    19 N8          15.0380   -11.4860    20.8980 N.am         1 I505000   0.0000
    20 O10         15.4670   -13.6050    20.1460 O.2          1 I505000   0.0000
    21 C17         19.3340   -14.1170    21.0090 C.ar         1 I505000   0.0000
    22 CL18        20.1610   -13.2430    19.6960 Cl           1 I505000   0.0000
    23 F19         16.1630   -13.9770    22.9160 F            1 I505000   0.0000
    24 N20         17.3490   -16.1960    24.1720 N.pl3        1 I505000   0.0000
    25 C25         19.8580   -16.2290    25.9150 C.ar         1 I505000   0.0000
    26 C26         21.0880   -16.7970    25.4930 C.ar         1 I505000   0.0000
    27 C28         22.1470   -14.5890    25.5970 C.ar         1 I505000   0.0000
    28 C29         20.9160   -14.0200    26.0160 C.ar         1 I505000   0.0000
    29 F31         17.6690   -16.4360    26.8250 F            1 I505000   0.0000
    30 F32         18.8830   -18.3030    26.6480 F            1 I505000   0.0000
    31 H1          13.3725   -11.5865    19.7382 H            1 I505000   0.0000
    32 H2          13.2887   -12.5024    21.0875 H            1 I505000   0.0000
    33 H3          17.6428   -11.6447    21.2637 H            1 I505000   0.0000
    34 H4          17.8098   -12.3838    19.8172 H            1 I505000   0.0000
    35 H5          19.7322   -16.6995    23.0895 H            1 I505000   0.0000
    36 H6          20.8669   -15.5237    21.3159 H            1 I505000   0.0000
    37 H7          17.3154   -18.1320    24.7648 H            1 I505000   0.0000
    38 H8          18.7180   -17.6839    24.0586 H            1 I505000   0.0000
    39 H9          23.0964   -16.3876    25.0504 H            1 I505000   0.0000
    40 H10         18.9105   -14.4269    26.4636 H            1 I505000   0.0000
    41 H11         10.2692   -10.5816    25.1911 H            1 I505000   0.0000
    42 H12         10.4561   -13.8499    23.9265 H            1 I505000   0.0000
    43 H13         13.4541    -9.6382    21.3487 H            1 I505000   0.0000
    44 H14         11.9976   -10.3273    21.0832 H            1 I505000   0.0000
    45 H15         15.4234   -10.6135    21.1982 H            1 I505000   0.0000
    46 H16         16.4839   -15.8700    24.5533 H            1 I505000   0.0000
    47 H17         21.1457   -17.7772    25.3036 H            1 I505000   0.0000
    48 H18         22.9542   -14.0098    25.4831 H            1 I505000   0.0000
    49 H19         20.8578   -13.0390    26.2010 H            1 I505000   0.0000
    50 H20          9.4782   -12.7755    24.8697 H            1 I505000   0.0000
    51 H21         12.6912   -12.9624    22.8500 H            1 I505000   0.0000
@<TRIPOS>BOND
     1    1   15       2
     2    1   16       1
     3    1   17       1
     4    2   17       1
     5    2   18       1
     6    3   18       1
     7    3   19       1
     8    4    5       1
     9    4   19      am
    10    4   20       2
    11    5    6       1
    12    6    7      ar
    13    6   21      ar
    14    7    8      ar
    15    7   23       1
    16    8    9      ar
    17    8   24       1
    18    9   10      ar
    19   10   21      ar
    20   11   12       1
    21   11   24       1
    22   12   25       1
    23   12   29       1
    24   12   30       1
    25   13   26      ar
    26   13   27      ar
    27   14   25      ar
    28   14   28      ar
    29   21   22       1
    30   25   26      ar
    31   27   28      ar
    32    3   31       1
    33    3   32       1
    34    5   33       1
    35    5   34       1
    36    9   35       1
    37   10   36       1
    38   11   37       1
    39   11   38       1
    40   13   39       1
    41   14   40       1
    42   28   49       1
    43   15   41       1
    44   16   42       1
    45   16   50       1
    46   18   43       1
    47   18   44       1
    48   19   45       1
    49   24   46       1
    50   26   47       1
    51   27   48       1
    52   17   51       1
@<TRIPOS>SUBSTRUCTURE
     1 I505000     1 GROUP             4 B     I50     0 **** I50 B5000
