2r2m_I50_1_ligand
  -OEChem-08111718373D

 52 53  0     1  0  0  0  0  0999 V2000
   22.9542  -14.0098   25.4831 H   0  0  0  0  0  0  0  0  0  0  0  0
   23.0964  -16.3876   25.0504 H   0  0  0  0  0  0  0  0  0  0  0  0
   20.8578  -13.0390   26.2010 H   0  0  0  0  0  0  0  0  0  0  0  0
   21.1457  -17.7772   25.3036 H   0  0  0  0  0  0  0  0  0  0  0  0
   18.9105  -14.4269   26.4636 H   0  0  0  0  0  0  0  0  0  0  0  0
   19.7322  -16.6995   23.0895 H   0  0  0  0  0  0  0  0  0  0  0  0
   20.8669  -15.5237   21.3159 H   0  0  0  0  0  0  0  0  0  0  0  0
   17.6428  -11.6447   21.2637 H   0  0  0  0  0  0  0  0  0  0  0  0
   17.8098  -12.3838   19.8172 H   0  0  0  0  0  0  0  0  0  0  0  0
   13.3725  -11.5865   19.7382 H   0  0  0  0  0  0  0  0  0  0  0  0
   13.2887  -12.5024   21.0875 H   0  0  0  0  0  0  0  0  0  0  0  0
   17.3154  -18.1320   24.7648 H   0  0  0  0  0  0  0  0  0  0  0  0
   18.7180  -17.6839   24.0586 H   0  0  0  0  0  0  0  0  0  0  0  0
   13.4541   -9.6382   21.3487 H   0  0  0  0  0  0  0  0  0  0  0  0
   11.9976  -10.3273   21.0832 H   0  0  0  0  0  0  0  0  0  0  0  0
   11.6822   -9.9910   24.3976 H   0  0  0  0  0  0  0  0  0  0  0  0
   10.4561  -13.8499   23.9265 H   0  0  0  0  0  0  0  0  0  0  0  0
    9.4782  -12.7755   24.8697 H   0  0  0  0  0  0  0  0  0  0  0  0
   16.4839  -15.8700   24.5533 H   0  0  0  0  0  0  0  0  0  0  0  0
   15.4234  -10.6135   21.1982 H   0  0  0  0  0  0  0  0  0  0  0  0
   12.6912  -12.9624   22.8500 H   0  0  0  0  0  0  0  0  0  0  0  0
   22.1470  -14.5890   25.5970 C   0  0  0  0  0  0  0  0  0  0  0  0
   22.2290  -15.9830   25.3400 C   0  0  0  0  0  0  0  0  0  0  0  0
   20.9160  -14.0200   26.0160 C   0  0  0  0  0  0  0  0  0  0  0  0
   21.0880  -16.7970   25.4930 C   0  0  0  0  0  0  0  0  0  0  0  0
   19.7770  -14.8320   26.1720 C   0  0  0  0  0  0  0  0  0  0  0  0
   19.2980  -15.9110   22.6540 C   0  0  0  0  0  0  0  0  0  0  0  0
   19.9610  -15.2270   21.6180 C   0  0  0  0  0  0  0  0  0  0  0  0
   19.8580  -16.2290   25.9150 C   0  0  0  0  0  0  0  0  0  0  0  0
   18.0500  -13.6860   21.4320 C   0  0  0  0  0  0  0  0  0  0  0  0
   18.0100  -15.4820   23.0830 C   0  0  0  0  0  0  0  0  0  0  0  0
   17.3890  -14.3750   22.4770 C   0  0  0  0  0  0  0  0  0  0  0  0
   19.3340  -14.1170   21.0090 C   0  0  0  0  0  0  0  0  0  0  0  0
   15.9110  -12.6250   20.6430 C   0  0  0  0  0  0  0  0  0  0  0  0
   11.2820  -11.8930   24.1440 C   0  0  0  0  0  0  0  0  0  0  0  0
   17.4290  -12.4680   20.7380 C   0  0  1  0  0  0  0  0  0  0  0  0
   13.5960  -11.6280   20.7120 C   0  0  2  0  0  0  0  0  0  0  0  0
   17.9920  -17.4000   24.6850 C   0  0  2  0  0  0  0  0  0  0  0  0
   12.9150  -10.4740   21.4530 C   0  0  1  0  0  0  0  0  0  0  0  0
   18.5950  -17.1030   26.0710 C   0  0  2  0  0  0  0  0  0  0  0  0
   11.0940  -10.7580   24.6540 N   0  3  0  0  0  0  0  0  0  0  0  0
   10.3040  -12.9490   24.3330 N   0  0  0  0  0  0  0  0  0  0  0  0
   17.3490  -16.1960   24.1720 N   0  0  0  0  0  0  0  0  0  0  0  0
   15.0380  -11.4860   20.8980 N   0  0  0  0  0  0  0  0  0  0  0  0
   12.3530  -12.0830   23.1850 N   0  0  0  0  0  0  0  0  0  0  0  0
   15.4670  -13.6050   20.1460 O   0  0  0  0  0  0  0  0  0  0  0  0
   12.8320  -10.8210   22.8090 O   0  0  0  0  0  0  0  0  0  0  0  0
   16.1630  -13.9770   22.9160 F   0  0  0  0  0  0  0  0  0  0  0  0
   17.6690  -16.4360   26.8250 F   0  0  0  0  0  0  0  0  0  0  0  0
   18.8830  -18.3030   26.6480 F   0  0  0  0  0  0  0  0  0  0  0  0
   20.1610  -13.2430   19.6960 Cl  0  0  0  0  0  0  0  0  0  0  0  0
   10.3564  -10.6231   25.3157 H   0  0  0  0  0  0  0  0  0  0  0  0
  1 22  1  0  0  0  0
  2 23  1  0  0  0  0
  3 24  1  0  0  0  0
  4 25  1  0  0  0  0
  5 26  1  0  0  0  0
  6 27  1  0  0  0  0
  7 28  1  0  0  0  0
  8 36  1  0  0  0  0
  9 36  1  0  0  0  0
 10 37  1  0  0  0  0
 11 37  1  0  0  0  0
 12 38  1  0  0  0  0
 13 38  1  0  0  0  0
 14 39  1  0  0  0  0
 15 39  1  0  0  0  0
 16 41  1  0  0  0  0
 17 42  1  0  0  0  0
 18 42  1  0  0  0  0
 19 43  1  0  0  0  0
 20 44  1  0  0  0  0
 21 45  1  0  0  0  0
 22 23  1  0  0  0  0
 22 24  2  0  0  0  0
 23 25  2  0  0  0  0
 24 26  1  0  0  0  0
 25 29  1  0  0  0  0
 26 29  2  0  0  0  0
 27 28  1  0  0  0  0
 27 31  2  0  0  0  0
 28 33  2  0  0  0  0
 29 40  1  0  0  0  0
 30 32  2  0  0  0  0
 30 33  1  0  0  0  0
 30 36  1  0  0  0  0
 31 32  1  0  0  0  0
 31 43  1  0  0  0  0
 32 48  1  0  0  0  0
 33 51  1  0  0  0  0
 34 36  1  0  0  0  0
 34 44  1  0  0  0  0
 34 46  2  0  0  0  0
 35 41  2  0  0  0  0
 35 42  1  0  0  0  0
 35 45  1  0  0  0  0
 37 39  1  0  0  0  0
 37 44  1  0  0  0  0
 38 40  1  0  0  0  0
 38 43  1  0  0  0  0
 39 47  1  0  0  0  0
 40 49  1  0  0  0  0
 40 50  1  0  0  0  0
 45 47  1  0  0  0  0
 41 52  1  0  0  0  0
M  CHG  1  41   1
M  END
> <scpdb_id>
2r2m_1

$$$$
