#    Name: 27785
#    Modification time : Tue Aug  8 23:40:26 2017

@<TRIPOS>MOLECULE
27785
   30     0     9     0     0
SMALL
NO_CHARGES


@<TRIPOS>ATOM
      1 N          12.8920    8.6470    1.9780 N.am      1 SEL1        0.0000 
      2 O          14.7790    7.6000    3.0340 O.2       2 ALL2        0.0000 
      3 CA         15.1460   11.7240    4.7220 C.3       3 GLL5        0.0000 
      4 CA         15.4740   15.4220    0.0610 C.3       3 GLL5        0.0000 
      5 CA         14.2730   15.2480    2.0810 C.3       3 GLL5        0.0000 
      6 CA         14.2800   15.0320    3.4500 C.3       3 GLL5        0.0000 
      7 CA         15.4000   14.5350    5.6290 C.3       3 GLL5        0.0000 
      8 CA         16.6610   14.9470    2.0640 C.3       3 GLL5        0.0000 
      9 N          12.2670    6.2540    0.1930 N.am      4 SEP1        0.0000 
     10 O          15.1930    6.0200    0.9390 O.2       5 ALP2        0.0000 
     11 CA         13.9880    9.6860    8.0610 C.3       6 GLP5        0.0000 
     12 CA         11.0600   12.2500    6.1230 C.3       6 GLP5        0.0000 
     13 CA         16.2330   11.4660    0.9270 C.3       6 GLP5        0.0000 
     14 CA         17.5270   19.0030   -0.8910 C.3       6 GLP5        0.0000 
     15 CA         14.0670   11.8610   -0.3300 C.3       6 GLP5        0.0000 
     16 CA         11.4670   14.7010    6.3720 C.3       6 GLP5        0.0000 
     17 CA         15.5990   11.8330   -0.4220 C.3       6 GLP5        0.0000 
     18 CA         13.2750   18.5620    0.7320 C.3       6 GLP5        0.0000 
     19 N          12.5795    7.4505    1.0855 N.am      7 SEC1        0.0000 
     20 O          14.9860    6.8100    1.9865 O.2       8 ALC2        0.0000 
     21 CA         14.5670   10.7050    6.3915 C.3       9 GLC5        0.0000 
     22 CA         13.1030   11.9870    5.4225 C.3       9 GLC5        0.0000 
     23 CA         15.6895   11.5950    2.8245 C.3       9 GLC5        0.0000 
     24 CA         16.5005   17.2125   -0.4150 C.3       9 GLC5        0.0000 
     25 CA         14.1700   13.5545    0.8755 C.3       9 GLC5        0.0000 
     26 CA         12.8735   14.8665    4.9110 C.3       9 GLC5        0.0000 
     27 CA         13.5285   14.9410    6.1835 C.3       9 GLC5        0.0000 
     28 CA         16.4490   13.1517    1.8388 C.3       9 GLC5        0.0000 
     29 CA         15.5358   13.5753    0.1527 C.3       9 GLC5        0.0000 
     30 CA         14.2236   16.9180    0.9822 C.3       9 GLC5        0.0000 
@<TRIPOS>BOND
@<TRIPOS>SUBSTRUCTURE
     1 SEL1        1 GROUP        1 Z    SEL  0     ROOT SEL Z 0
     2 ALL2        2 GROUP        1 Z    ALL  0     **** ALL Z 1
     3 GLL5        3 GROUP        1 Z    GLL  0     **** GLL Z 4
     4 SEP1        9 GROUP        1 Z    SEP  0     **** SEP Z 7
     5 ALP2       10 GROUP        1 Z    ALP  0     **** ALP Z 8
     6 GLP5       11 GROUP        1 Z    GLP  0     **** GLP Z 11
     7 SEC1       19 GROUP        1 Z    SEC  0     **** SEC Z 14
     8 ALC2       20 GROUP        1 Z    ALC  0     **** ALC Z 15
     9 GLC5       21 GROUP        1 Z    GLC  0     **** GLC Z 18
@<TRIPOS>SET

