@<TRIPOS>MOLECULE
3iok_1P6_1_ligand
   42    45     1     0     0
SMALL
NO_CHARGES


@<TRIPOS>ATOM
     1 C1          15.7800    15.8270     6.3610 C.3          1 1P61201   0.0000
     2 C2          15.4000    14.5350     5.6290 C.3          1 1P61201   0.0000
     3 N4          16.2870    13.4310     6.0480 N.pl3        1 1P61201   0.0000
     4 C5          16.2050    12.1310     5.5420 C.ar         1 1P61201   0.0000
     5 N6          17.1510    11.2370     5.8410 N.ar         1 1P61201   0.0000
     6 C7          17.0940     9.9920     5.3870 C.ar         1 1P61201   0.0000
     7 N8          16.1120     9.5860     4.5990 N.ar         1 1P61201   0.0000
     8 C9          15.1130    10.4120     4.2540 C.ar         1 1P61201   0.0000
     9 C10         15.1460    11.7240     4.7220 C.ar         1 1P61201   0.0000
    10 C11         14.0400     9.9580     3.3430 C.2          1 1P61201   0.0000
    11 C12         12.9890    10.7230     2.8020 C.2          1 1P61201   0.0000
    12 N13         12.6100    11.9930     2.9560 N.2          1 1P61201   0.0000
    13 C14         11.5730    12.4730     2.3000 C.2          1 1P61201   0.0000
    14 C15         10.8240    11.6700     1.4320 C.2          1 1P61201   0.0000
    15 C16         11.1810    10.3720     1.2850 C.2          1 1P61201   0.0000
    16 N17         12.2750     9.9030     1.9670 N.pl3        1 1P61201   0.0000
    17 N18         12.8920     8.6470     1.9780 N.2          1 1P61201   0.0000
    18 C19         13.9340     8.6770     2.7790 C.2          1 1P61201   0.0000
    19 N20         14.7790     7.6000     3.0340 N.pl3        1 1P61201   0.0000
    20 C21         15.4650    14.7720     4.1320 C.ar         1 1P61201   0.0000
    21 C22         16.6690    14.7280     3.4370 C.ar         1 1P61201   0.0000
    22 C23         16.6610    14.9470     2.0640 C.ar         1 1P61201   0.0000
    23 C24         15.4710    15.2130     1.3940 C.ar         1 1P61201   0.0000
    24 F25         15.4740    15.4220     0.0610 F            1 1P61201   0.0000
    25 C26         14.2730    15.2480     2.0810 C.ar         1 1P61201   0.0000
    26 C27         14.2800    15.0320     3.4500 C.ar         1 1P61201   0.0000
    27 H1          15.1731    16.5663     6.0692 H            1 1P61201   0.0000
    28 H2          15.6887    15.6904     7.3474 H            1 1P61201   0.0000
    29 H3          16.7261    16.0672     6.1439 H            1 1P61201   0.0000
    30 H4          14.4598    14.2968     5.8724 H            1 1P61201   0.0000
    31 H5          16.9878    13.6253     6.7344 H            1 1P61201   0.0000
    32 H6          17.8106     9.3447     5.6466 H            1 1P61201   0.0000
    33 H7          14.4215    12.3675     4.4749 H            1 1P61201   0.0000
    34 H8          11.3156    13.4312     2.4249 H            1 1P61201   0.0000
    35 H9          10.0437    12.0459     0.9322 H            1 1P61201   0.0000
    36 H10         10.6555     9.7650     0.6888 H            1 1P61201   0.0000
    37 H11         14.6212     6.7225     2.5811 H            1 1P61201   0.0000
    38 H12         15.5437     7.7041     3.6700 H            1 1P61201   0.0000
    39 H13         17.5263    14.5419     3.9170 H            1 1P61201   0.0000
    40 H14         17.5197    14.9130     1.5526 H            1 1P61201   0.0000
    41 H15         13.4153    15.4262     1.5987 H            1 1P61201   0.0000
    42 H16         13.4184    15.0635     3.9567 H            1 1P61201   0.0000
@<TRIPOS>BOND
     1    1    2       1
     2    2    3       1
     3    2   20       1
     4    3    4       1
     5    4    5      ar
     6    4    9      ar
     7    5    6      ar
     8    6    7      ar
     9    7    8      ar
    10    8    9      ar
    11    8   10       1
    12   10   11       2
    13   10   18       1
    14   11   12       1
    15   11   16       1
    16   12   13       2
    17   13   14       1
    18   14   15       2
    19   15   16       1
    20   16   17       1
    21   17   18       2
    22   18   19       1
    23   20   21      ar
    24   20   26      ar
    25   21   22      ar
    26   22   23      ar
    27   23   24       1
    28   23   25      ar
    29   25   26      ar
    30    1   27       1
    31    1   28       1
    32    1   29       1
    33    2   30       1
    34    3   31       1
    35    6   32       1
    36    9   33       1
    37   13   34       1
    38   14   35       1
    39   15   36       1
    40   19   37       1
    41   19   38       1
    42   21   39       1
    43   22   40       1
    44   25   41       1
    45   26   42       1
@<TRIPOS>SUBSTRUCTURE
     1 1P61201     1 GROUP             4 A     1P6     0 **** 1P6 A1201
