3iok_1P6_1_ligand
  -OEChem-08111718373D

 42 45  0     1  0  0  0  0  0999 V2000
   17.5263   14.5419    3.9170 H   0  0  0  0  0  0  0  0  0  0  0  0
   13.4184   15.0635    3.9567 H   0  0  0  0  0  0  0  0  0  0  0  0
   17.5197   14.9130    1.5526 H   0  0  0  0  0  0  0  0  0  0  0  0
   13.4153   15.4262    1.5987 H   0  0  0  0  0  0  0  0  0  0  0  0
   10.0437   12.0459    0.9322 H   0  0  0  0  0  0  0  0  0  0  0  0
   14.4215   12.3675    4.4749 H   0  0  0  0  0  0  0  0  0  0  0  0
   11.3156   13.4312    2.4249 H   0  0  0  0  0  0  0  0  0  0  0  0
   10.6555    9.7650    0.6888 H   0  0  0  0  0  0  0  0  0  0  0  0
   17.8106    9.3447    5.6466 H   0  0  0  0  0  0  0  0  0  0  0  0
   15.1731   16.5663    6.0692 H   0  0  0  0  0  0  0  0  0  0  0  0
   15.6887   15.6904    7.3474 H   0  0  0  0  0  0  0  0  0  0  0  0
   16.7261   16.0672    6.1439 H   0  0  0  0  0  0  0  0  0  0  0  0
   14.4598   14.2968    5.8724 H   0  0  0  0  0  0  0  0  0  0  0  0
   14.6212    6.7225    2.5811 H   0  0  0  0  0  0  0  0  0  0  0  0
   15.5437    7.7041    3.6700 H   0  0  0  0  0  0  0  0  0  0  0  0
   16.9878   13.6253    6.7344 H   0  0  0  0  0  0  0  0  0  0  0  0
   16.6690   14.7280    3.4370 C   0  0  0  0  0  0  0  0  0  0  0  0
   14.2800   15.0320    3.4500 C   0  0  0  0  0  0  0  0  0  0  0  0
   16.6610   14.9470    2.0640 C   0  0  0  0  0  0  0  0  0  0  0  0
   14.2730   15.2480    2.0810 C   0  0  0  0  0  0  0  0  0  0  0  0
   10.8240   11.6700    1.4320 C   0  0  0  0  0  0  0  0  0  0  0  0
   15.1460   11.7240    4.7220 C   0  0  0  0  0  0  0  0  0  0  0  0
   11.5730   12.4730    2.3000 C   0  0  0  0  0  0  0  0  0  0  0  0
   11.1810   10.3720    1.2850 C   0  0  0  0  0  0  0  0  0  0  0  0
   17.0940    9.9920    5.3870 C   0  0  0  0  0  0  0  0  0  0  0  0
   14.0400    9.9580    3.3430 C   0  0  0  0  0  0  0  0  0  0  0  0
   15.4650   14.7720    4.1320 C   0  0  0  0  0  0  0  0  0  0  0  0
   15.4710   15.2130    1.3940 C   0  0  0  0  0  0  0  0  0  0  0  0
   15.1130   10.4120    4.2540 C   0  0  0  0  0  0  0  0  0  0  0  0
   12.9890   10.7230    2.8020 C   0  0  0  0  0  0  0  0  0  0  0  0
   16.2050   12.1310    5.5420 C   0  0  0  0  0  0  0  0  0  0  0  0
   13.9340    8.6770    2.7790 C   0  0  0  0  0  0  0  0  0  0  0  0
   15.7800   15.8270    6.3610 C   0  0  0  0  0  0  0  0  0  0  0  0
   15.4000   14.5350    5.6290 C   0  0  2  0  0  0  0  0  0  0  0  0
   12.6100   11.9930    2.9560 N   0  0  0  0  0  0  0  0  0  0  0  0
   16.1120    9.5860    4.5990 N   0  0  0  0  0  0  0  0  0  0  0  0
   17.1510   11.2370    5.8410 N   0  0  0  0  0  0  0  0  0  0  0  0
   12.8920    8.6470    1.9780 N   0  0  0  0  0  0  0  0  0  0  0  0
   12.2750    9.9030    1.9670 N   0  0  0  0  0  0  0  0  0  0  0  0
   14.7790    7.6000    3.0340 N   0  0  0  0  0  0  0  0  0  0  0  0
   16.2870   13.4310    6.0480 N   0  0  0  0  0  0  0  0  0  0  0  0
   15.4740   15.4220    0.0610 F   0  0  0  0  0  0  0  0  0  0  0  0
  1 17  1  0  0  0  0
  2 18  1  0  0  0  0
  3 19  1  0  0  0  0
  4 20  1  0  0  0  0
  5 21  1  0  0  0  0
  6 22  1  0  0  0  0
  7 23  1  0  0  0  0
  8 24  1  0  0  0  0
  9 25  1  0  0  0  0
 10 33  1  0  0  0  0
 11 33  1  0  0  0  0
 12 33  1  0  0  0  0
 13 34  1  0  0  0  0
 14 40  1  0  0  0  0
 15 40  1  0  0  0  0
 16 41  1  0  0  0  0
 17 19  1  0  0  0  0
 17 27  2  0  0  0  0
 18 20  2  0  0  0  0
 18 27  1  0  0  0  0
 19 28  2  0  0  0  0
 20 28  1  0  0  0  0
 21 23  1  0  0  0  0
 21 24  2  0  0  0  0
 22 29  2  0  0  0  0
 22 31  1  0  0  0  0
 23 35  2  0  0  0  0
 24 39  1  0  0  0  0
 25 36  2  0  0  0  0
 25 37  1  0  0  0  0
 26 29  1  0  0  0  0
 26 30  2  0  0  0  0
 26 32  1  0  0  0  0
 27 34  1  0  0  0  0
 28 42  1  0  0  0  0
 29 36  1  0  0  0  0
 30 35  1  0  0  0  0
 30 39  1  0  0  0  0
 31 37  2  0  0  0  0
 31 41  1  0  0  0  0
 32 38  2  0  0  0  0
 32 40  1  0  0  0  0
 33 34  1  0  0  0  0
 34 41  1  0  0  0  0
 38 39  1  0  0  0  0
M  END
> <scpdb_id>
3iok_1

$$$$
