#    Name: 19644
#    Modification time : Tue Aug  8 19:46:04 2017

@<TRIPOS>MOLECULE
19644
   42     0     9     0     0
SMALL
NO_CHARGES


@<TRIPOS>ATOM
      1 N          27.9260    4.0410   64.6890 N.am      1 SEL1        0.0000 
      2 N          34.3260   10.2290   63.5230 N.am      1 SEL1        0.0000 
      3 O          29.3650    6.3440   64.8890 O.2       2 ALL2        0.0000 
      4 O          27.1080    3.0460   64.2680 O.2       2 ALL2        0.0000 
      5 CA         24.5010    5.0540   61.7950 C.3       3 GLL5        0.0000 
      6 CA         30.4330    8.1040   63.6190 C.3       3 GLL5        0.0000 
      7 CA         25.5550    5.6480   62.4670 C.3       3 GLL5        0.0000 
      8 CA         26.3690    4.8860   63.3020 C.3       3 GLL5        0.0000 
      9 CA         26.1450    3.5130   63.4150 C.3       3 GLL5        0.0000 
     10 CA         25.0950    2.9240   62.7250 C.3       3 GLL5        0.0000 
     11 CA         24.2700    3.6940   61.9270 C.3       3 GLL5        0.0000 
     12 CA         31.3590    9.1170   63.5230 C.3       3 GLL5        0.0000 
     13 N          30.1820    2.1530   66.0040 N.am      4 SEP1        0.0000 
     14 N          34.2380    7.7450   61.7950 N.am      4 SEP1        0.0000 
     15 O          31.3320    4.6390   66.1640 O.2       5 ALP2        0.0000 
     16 O          26.6490    0.5210   65.3950 O.2       5 ALP2        0.0000 
     17 CA         22.8220    8.7000   63.3680 C.3       6 GLP5        0.0000 
     18 CA         30.5700    5.5490   60.8320 C.3       6 GLP5        0.0000 
     19 CA         24.1160    7.9460   65.3770 C.3       6 GLP5        0.0000 
     20 CA         24.7340    3.9350   66.5230 C.3       6 GLP5        0.0000 
     21 CA         28.9610    3.6920   61.5850 C.3       6 GLP5        0.0000 
     22 CA         26.6250   -0.2060   62.1780 C.3       6 GLP5        0.0000 
     23 CA         26.6110    3.3140   58.7060 C.3       6 GLP5        0.0000 
     24 CA         32.5890    8.4000   60.0190 C.3       6 GLP5        0.0000 
     25 CA         23.2430    0.7860   64.5180 C.3       6 GLP5        0.0000 
     26 CA         28.2880   10.5820   65.6160 C.3       6 GLP5        0.0000 
     27 N          29.0540    3.0970   65.3465 N.am      7 SEC1        0.0000 
     28 N          34.2820    8.9870   62.6590 N.am      7 SEC1        0.0000 
     29 O          30.3485    5.4915   65.5265 O.2       8 ALC2        0.0000 
     30 O          26.8785    1.7835   64.8315 O.2       8 ALC2        0.0000 
     31 CA         23.6615    6.8770   62.5815 C.3       9 GLC5        0.0000 
     32 CA         30.5015    6.8265   62.2255 C.3       9 GLC5        0.0000 
     33 CA         25.0390    6.6065   64.1308 C.3       9 GLC5        0.0000 
     34 CA         25.3480    4.6010   64.7037 C.3       9 GLC5        0.0000 
     35 CA         27.4615    4.4795   62.2347 C.3       9 GLC5        0.0000 
     36 CA         25.1770    3.5768   64.7965 C.3       9 GLC5        0.0000 
     37 CA         26.1225    1.5063   62.6240 C.3       9 GLC5        0.0000 
     38 CA         27.2905    3.4552   62.3275 C.3       9 GLC5        0.0000 
     39 CA         25.6756    3.4815   60.4995 C.3       9 GLC5        0.0000 
     40 CA         31.7425    8.5053   61.7950 C.3       9 GLC5        0.0000 
     41 CA         24.0234    2.1045   63.4204 C.3       9 GLC5        0.0000 
     42 CA         29.9248    9.6424   65.2166 C.3       9 GLC5        0.0000 
@<TRIPOS>BOND
@<TRIPOS>SUBSTRUCTURE
     1 SEL1        1 GROUP        1 Z    SEL  0     ROOT SEL Z 0
     2 ALL2        3 GROUP        1 Z    ALL  0     **** ALL Z 1
     3 GLL5        5 GROUP        1 Z    GLL  0     **** GLL Z 4
     4 SEP1       13 GROUP        1 Z    SEP  0     **** SEP Z 7
     5 ALP2       15 GROUP        1 Z    ALP  0     **** ALP Z 8
     6 GLP5       17 GROUP        1 Z    GLP  0     **** GLP Z 11
     7 SEC1       27 GROUP        1 Z    SEC  0     **** SEC Z 14
     8 ALC2       29 GROUP        1 Z    ALC  0     **** ALC Z 15
     9 GLC5       31 GROUP        1 Z    GLC  0     **** GLC Z 18
@<TRIPOS>SET

