2vti_LZ3_1_ligand
  -OEChem-08111718373D

 34 36  0     1  0  0  0  0  0999 V2000
   23.9050    5.6073   61.2131 H   0  0  0  0  0  0  0  0  0  0  0  0
   23.5047    3.2688   61.4438 H   0  0  0  0  0  0  0  0  0  0  0  0
   25.7325    6.6255   62.3530 H   0  0  0  0  0  0  0  0  0  0  0  0
   24.9348    1.9402   62.8053 H   0  0  0  0  0  0  0  0  0  0  0  0
   29.8469    7.8890   62.8378 H   0  0  0  0  0  0  0  0  0  0  0  0
   31.0076    7.1875   66.7402 H   0  0  0  0  0  0  0  0  0  0  0  0
   31.4566    9.6270   62.6684 H   0  0  0  0  0  0  0  0  0  0  0  0
   32.6074    8.9462   66.5775 H   0  0  0  0  0  0  0  0  0  0  0  0
   27.1969    2.0895   64.5460 H   0  0  0  0  0  0  0  0  0  0  0  0
   31.7036   12.0289   64.1156 H   0  0  0  0  0  0  0  0  0  0  0  0
   33.1294   12.8219   64.1859 H   0  0  0  0  0  0  0  0  0  0  0  0
   29.5929    5.5210   65.4093 H   0  0  0  0  0  0  0  0  0  0  0  0
   24.5010    5.0540   61.7950 C   0  0  0  0  0  0  0  0  0  0  0  0
   24.2700    3.6940   61.9270 C   0  0  0  0  0  0  0  0  0  0  0  0
   25.5550    5.6480   62.4670 C   0  0  0  0  0  0  0  0  0  0  0  0
   25.0950    2.9240   62.7250 C   0  0  0  0  0  0  0  0  0  0  0  0
   30.4330    8.1040   63.6190 C   0  0  0  0  0  0  0  0  0  0  0  0
   31.1030    7.6970   65.8850 C   0  0  0  0  0  0  0  0  0  0  0  0
   31.3590    9.1170   63.5230 C   0  0  0  0  0  0  0  0  0  0  0  0
   32.0300    8.7200   65.7930 C   0  0  0  0  0  0  0  0  0  0  0  0
   26.3690    4.8860   63.3020 C   0  0  0  0  0  0  0  0  0  0  0  0
   26.1450    3.5130   63.4150 C   0  0  0  0  0  0  0  0  0  0  0  0
   30.3090    7.3760   64.8020 C   0  0  0  0  0  0  0  0  0  0  0  0
   32.1550    9.4290   64.6110 C   0  0  0  0  0  0  0  0  0  0  0  0
   27.4700    5.1580   64.1070 C   0  0  0  0  0  0  0  0  0  0  0  0
   28.1760    6.4260   64.3010 C   0  0  0  0  0  0  0  0  0  0  0  0
   27.9260    4.0410   64.6890 N   0  0  0  0  0  0  0  0  0  0  0  0
   27.1080    3.0460   64.2680 N   0  0  0  0  0  0  0  0  0  0  0  0
   32.6660   12.0040   63.8450 N   0  0  1  0  0  0  0  0  0  0  0  0
   29.3650    6.3440   64.8890 N   0  0  0  0  0  0  0  0  0  0  0  0
   27.7090    7.4980   63.8860 O   0  0  0  0  0  0  0  0  0  0  0  0
   34.3260   10.2290   63.5230 O   0  0  0  0  0  0  0  0  0  0  0  0
   33.8050   11.0330   65.7970 O   0  0  0  0  0  0  0  0  0  0  0  0
   33.3630   10.6960   64.4650 S   0  0  2  0  0  0  0  0  0  0  0  0
  1 13  1  0  0  0  0
  2 14  1  0  0  0  0
  3 15  1  0  0  0  0
  4 16  1  0  0  0  0
  5 17  1  0  0  0  0
  6 18  1  0  0  0  0
  7 19  1  0  0  0  0
  8 20  1  0  0  0  0
  9 28  1  0  0  0  0
 10 29  1  0  0  0  0
 11 29  1  0  0  0  0
 12 30  1  0  0  0  0
 13 14  1  0  0  0  0
 13 15  2  0  0  0  0
 14 16  2  0  0  0  0
 15 21  1  0  0  0  0
 16 22  1  0  0  0  0
 17 19  2  0  0  0  0
 17 23  1  0  0  0  0
 18 20  1  0  0  0  0
 18 23  2  0  0  0  0
 19 24  1  0  0  0  0
 20 24  2  0  0  0  0
 21 22  2  0  0  0  0
 21 25  1  0  0  0  0
 22 28  1  0  0  0  0
 23 30  1  0  0  0  0
 24 34  1  0  0  0  0
 25 26  1  0  0  0  0
 25 27  2  0  0  0  0
 26 30  1  0  0  0  0
 26 31  2  0  0  0  0
 27 28  1  0  0  0  0
 29 34  1  0  0  0  0
 32 34  2  0  0  0  0
 33 34  2  0  0  0  0
M  END
> <scpdb_id>
2vti_1

$$$$
