@<TRIPOS>MOLECULE
2vti_LZ3_1_ligand
   34    36     1     0     0
SMALL
NO_CHARGES


@<TRIPOS>ATOM
     1 N1          29.3650     6.3440    64.8890 N.am         1 LZ31299   0.0000
     2 C2          28.1760     6.4260    64.3010 C.2          1 LZ31299   0.0000
     3 C3          27.4700     5.1580    64.1070 C.2          1 LZ31299   0.0000
     4 C4          25.5550     5.6480    62.4670 C.ar         1 LZ31299   0.0000
     5 C5          24.5010     5.0540    61.7950 C.ar         1 LZ31299   0.0000
     6 C6          24.2700     3.6940    61.9270 C.ar         1 LZ31299   0.0000
     7 C7          25.0950     2.9240    62.7250 C.ar         1 LZ31299   0.0000
     8 C9          26.3690     4.8860    63.3020 C.ar         1 LZ31299   0.0000
     9 O11         27.7090     7.4980    63.8860 O.2          1 LZ31299   0.0000
    10 N12         27.9260     4.0410    64.6890 N.2          1 LZ31299   0.0000
    11 N17         27.1080     3.0460    64.2680 N.pl3        1 LZ31299   0.0000
    12 C20         30.4330     8.1040    63.6190 C.ar         1 LZ31299   0.0000
    13 C21         31.3590     9.1170    63.5230 C.ar         1 LZ31299   0.0000
    14 C22         32.1550     9.4290    64.6110 C.ar         1 LZ31299   0.0000
    15 C23         32.0300     8.7200    65.7930 C.ar         1 LZ31299   0.0000
    16 C24         31.1030     7.6970    65.8850 C.ar         1 LZ31299   0.0000
    17 S27         33.3630    10.6960    64.4650 S.o2         1 LZ31299   0.0000
    18 O28         34.3260    10.2290    63.5230 O.2          1 LZ31299   0.0000
    19 O29         33.8050    11.0330    65.7970 O.2          1 LZ31299   0.0000
    20 N30         32.6660    12.0040    63.8450 N.3          1 LZ31299   0.0000
    21 C8          30.3090     7.3760    64.8020 C.ar         1 LZ31299   0.0000
    22 C16         26.1450     3.5130    63.4150 C.ar         1 LZ31299   0.0000
    23 H1          29.5929     5.5210    65.4093 H            1 LZ31299   0.0000
    24 H2          25.7325     6.6255    62.3530 H            1 LZ31299   0.0000
    25 H3          23.9050     5.6073    61.2131 H            1 LZ31299   0.0000
    26 H4          23.5047     3.2688    61.4438 H            1 LZ31299   0.0000
    27 H5          24.9348     1.9402    62.8053 H            1 LZ31299   0.0000
    28 H6          27.1969     2.0895    64.5460 H            1 LZ31299   0.0000
    29 H7          29.8469     7.8890    62.8378 H            1 LZ31299   0.0000
    30 H8          31.4566     9.6270    62.6684 H            1 LZ31299   0.0000
    31 H9          32.6074     8.9462    66.5775 H            1 LZ31299   0.0000
    32 H10         31.0076     7.1875    66.7402 H            1 LZ31299   0.0000
    33 H11         31.7036    12.0289    64.1156 H            1 LZ31299   0.0000
    34 H12         33.1294    12.8219    64.1859 H            1 LZ31299   0.0000
@<TRIPOS>BOND
     1    1    2      am
     2    1   21       1
     3    2    3       1
     4    2    9       2
     5    3    8       1
     6    3   10       2
     7    4    5      ar
     8    4    8      ar
     9    5    6      ar
    10    6    7      ar
    11    7   22      ar
    12    8   22      ar
    13   10   11       1
    14   11   22       1
    15   12   13      ar
    16   12   21      ar
    17   13   14      ar
    18   14   15      ar
    19   14   17       1
    20   15   16      ar
    21   16   21      ar
    22   17   18       2
    23   17   19       2
    24   17   20       1
    25    1   23       1
    26    4   24       1
    27    5   25       1
    28    6   26       1
    29    7   27       1
    30   11   28       1
    31   12   29       1
    32   13   30       1
    33   15   31       1
    34   16   32       1
    35   20   33       1
    36   20   34       1
@<TRIPOS>SUBSTRUCTURE
     1 LZ31299     1 GROUP             4 A     LZ3     0 **** LZ3 A1299
