@<TRIPOS>MOLECULE
2lwi_GNP_1_ligand
   45    47     1     0     0
SMALL
NO_CHARGES


@<TRIPOS>ATOM
     1 PG          14.1910     1.8360    -5.7470 P.3          1 GNP201   0.0000
     2 O1G         12.7930     2.5850    -6.0200 O.co2        1 GNP201   0.0000
     3 O2G         14.2370     1.5450    -4.1640 O.co2        1 GNP201  -1.0000
     4 O3G         15.3590     2.6110    -6.2230 O.co2        1 GNP201  -1.0000
     5 N3B         14.0650     0.3870    -6.4650 N.3          1 GNP201   0.0000
     6 PB          12.5330    -0.1360    -6.3730 P.3          1 GNP201   0.0000
     7 O1B         12.4720    -1.4500    -7.0530 O.co2        1 GNP201   0.0000
     8 O2B         12.0880    -0.0510    -4.9640 O.co2        1 GNP201  -1.0000
     9 O3A         11.7300     0.9510    -7.2470 O.3          1 GNP201   0.0000
    10 PA          12.0900     1.1640    -8.8020 P.3          1 GNP201   0.0000
    11 O1A         10.8340     1.1560    -9.5840 O.co2        1 GNP201   0.0000
    12 O2A         13.1450     0.1860    -9.1510 O.co2        1 GNP201  -1.0000
    13 O5'         12.7160     2.6480    -8.8160 O.3          1 GNP201   0.0000
    14 C5'         11.8480     3.7840    -8.8480 C.3          1 GNP201   0.0000
    15 C4'         12.6510     5.0860    -8.8950 C.3          1 GNP201   0.0000
    16 O4'         11.7380     6.1950    -8.7930 O.3          1 GNP201   0.0000
    17 C3'         13.5270     5.1720    -7.6440 C.3          1 GNP201   0.0000
    18 O3'         14.5210     6.1890    -7.7960 O.3          1 GNP201   0.0000
    19 C2'         12.4670     5.6030    -6.6350 C.3          1 GNP201   0.0000
    20 O2'         13.0960     6.1400    -5.4680 O.3          1 GNP201   0.0000
    21 C1'         11.8530     6.7310    -7.4630 C.3          1 GNP201   0.0000
    22 N9          10.5390     7.1430    -6.9190 N.pl3        1 GNP201   0.0000
    23 C8           9.7450     6.4010    -6.1500 C.2          1 GNP201   0.0000
    24 N7           8.6490     7.0930    -5.8490 N.2          1 GNP201   0.0000
    25 C5           8.7430     8.2860    -6.4290 C.2          1 GNP201   0.0000
    26 C6           7.9070     9.3950    -6.4550 C.2          1 GNP201   0.0000
    27 O6           6.8330     9.3870    -5.8540 O.2          1 GNP201   0.0000
    28 N1           8.3110    10.5230    -7.1780 N.2          1 GNP201   0.0000
    29 C2           9.5390    10.5010    -7.8510 C.2          1 GNP201   0.0000
    30 N2           9.9340    11.5660    -8.5420 N.pl3        1 GNP201   0.0000
    31 N3          10.3190     9.4110    -7.8010 N.pl3        1 GNP201   0.0000
    32 C4           9.9500     8.3190    -7.1140 C.2          1 GNP201   0.0000
    33 H3B         14.3318     0.4674    -7.4254 H            1 GNP201   0.0000
    34 H5'1        11.2761     3.7819    -8.0277 H            1 GNP201   0.0000
    35 H5'2        11.2667     3.7287    -9.6598 H            1 GNP201   0.0000
    36 H4'         13.2009     5.1437    -9.7282 H            1 GNP201   0.0000
    37 H3'         13.9299     4.2877    -7.4082 H            1 GNP201   0.0000
    38 H6          14.1703     6.9115    -8.3918 H            1 GNP201   0.0000
    39 H2'         11.8134     4.8761    -6.4241 H            1 GNP201   0.0000
    40 H8          14.0892     6.1099    -5.5809 H            1 GNP201   0.0000
    41 H1'         12.4728     7.5157    -7.4710 H            1 GNP201   0.0000
    42 H10          9.9416     5.4689    -5.8459 H            1 GNP201   0.0000
    43 H11         10.8104    11.5528    -9.0234 H            1 GNP201   0.0000
    44 H12          9.3547    12.3802    -8.5803 H            1 GNP201   0.0000
    45 H13         11.1937     9.4122    -8.2857 H            1 GNP201   0.0000
@<TRIPOS>BOND
     1    1    2      ar
     2    1    3      ar
     3    1    4      ar
     4    1    5       1
     5    5    6       1
     6    6    7      ar
     7    6    8      ar
     8    6    9       1
     9    9   10       1
    10   10   11      ar
    11   10   12      ar
    12   10   13       1
    13   13   14       1
    14   14   15       1
    15   15   16       1
    16   15   17       1
    17   16   21       1
    18   17   18       1
    19   17   19       1
    20   19   20       1
    21   19   21       1
    22   21   22       1
    23   22   23       1
    24   22   32       1
    25   23   24       2
    26   24   25       1
    27   25   26       1
    28   25   32       2
    29   26   27       2
    30   26   28       1
    31   28   29       2
    32   29   30       1
    33   29   31       1
    34   31   32       1
    35   30   44       1
    36   30   43       1
    37    5   33       1
    38   21   41       1
    39   23   42       1
    40   14   34       1
    41   14   35       1
    42   15   36       1
    43   17   37       1
    44   18   38       1
    45   19   39       1
    46   20   40       1
    47   31   45       1
@<TRIPOS>SUBSTRUCTURE
     1 GNP201      1 GROUP             4 A     GNP     0 **** GNP A 201
