2lwi_GNP_1_ligand
  -OEChem-08111718373D

 45 47  0     1  0  0  0  0  0999 V2000
    9.9416    5.4689   -5.8459 H   0  0  0  0  0  0  0  0  0  0  0  0
   13.9299    4.2877   -7.4082 H   0  0  0  0  0  0  0  0  0  0  0  0
   11.8134    4.8761   -6.4241 H   0  0  0  0  0  0  0  0  0  0  0  0
   13.2009    5.1437   -9.7282 H   0  0  0  0  0  0  0  0  0  0  0  0
   12.4728    7.5157   -7.4710 H   0  0  0  0  0  0  0  0  0  0  0  0
   11.2761    3.7819   -8.0277 H   0  0  0  0  0  0  0  0  0  0  0  0
   11.2667    3.7287   -9.6598 H   0  0  0  0  0  0  0  0  0  0  0  0
   11.1937    9.4122   -8.2857 H   0  0  0  0  0  0  0  0  0  0  0  0
   10.8104   11.5528   -9.0234 H   0  0  0  0  0  0  0  0  0  0  0  0
    9.3547   12.3802   -8.5803 H   0  0  0  0  0  0  0  0  0  0  0  0
   14.3318    0.4674   -7.4254 H   0  0  0  0  0  0  0  0  0  0  0  0
   14.1703    6.9115   -8.3918 H   0  0  0  0  0  0  0  0  0  0  0  0
   14.0892    6.1099   -5.5809 H   0  0  0  0  0  0  0  0  0  0  0  0
    9.7450    6.4010   -6.1500 C   0  0  0  0  0  0  0  0  0  0  0  0
    8.7430    8.2860   -6.4290 C   0  0  0  0  0  0  0  0  0  0  0  0
    7.9070    9.3950   -6.4550 C   0  0  0  0  0  0  0  0  0  0  0  0
    9.9500    8.3190   -7.1140 C   0  0  0  0  0  0  0  0  0  0  0  0
    9.5390   10.5010   -7.8510 C   0  0  0  0  0  0  0  0  0  0  0  0
   13.5270    5.1720   -7.6440 C   0  0  1  0  0  0  0  0  0  0  0  0
   12.4670    5.6030   -6.6350 C   0  0  2  0  0  0  0  0  0  0  0  0
   12.6510    5.0860   -8.8950 C   0  0  1  0  0  0  0  0  0  0  0  0
   11.8530    6.7310   -7.4630 C   0  0  2  0  0  0  0  0  0  0  0  0
   11.8480    3.7840   -8.8480 C   0  0  1  0  0  0  0  0  0  0  0  0
    8.6490    7.0930   -5.8490 N   0  0  0  0  0  0  0  0  0  0  0  0
    8.3110   10.5230   -7.1780 N   0  0  0  0  0  0  0  0  0  0  0  0
   10.3190    9.4110   -7.8010 N   0  0  0  0  0  0  0  0  0  0  0  0
   10.5390    7.1430   -6.9190 N   0  0  0  0  0  0  0  0  0  0  0  0
    9.9340   11.5660   -8.5420 N   0  0  0  0  0  0  0  0  0  0  0  0
   14.0650    0.3870   -6.4650 N   0  0  1  0  0  0  0  0  0  0  0  0
   14.2370    1.5450   -4.1640 O   0  5  0  0  0  0  0  0  0  0  0  0
   15.3590    2.6110   -6.2230 O   0  5  0  0  0  0  0  0  0  0  0  0
   12.0880   -0.0510   -4.9640 O   0  5  0  0  0  0  0  0  0  0  0  0
   13.1450    0.1860   -9.1510 O   0  5  0  0  0  0  0  0  0  0  0  0
    6.8330    9.3870   -5.8540 O   0  0  0  0  0  0  0  0  0  0  0  0
   12.7930    2.5850   -6.0200 O   0  0  0  0  0  0  0  0  0  0  0  0
   12.4720   -1.4500   -7.0530 O   0  0  0  0  0  0  0  0  0  0  0  0
   10.8340    1.1560   -9.5840 O   0  0  0  0  0  0  0  0  0  0  0  0
   11.7380    6.1950   -8.7930 O   0  0  0  0  0  0  0  0  0  0  0  0
   14.5210    6.1890   -7.7960 O   0  0  0  0  0  0  0  0  0  0  0  0
   13.0960    6.1400   -5.4680 O   0  0  0  0  0  0  0  0  0  0  0  0
   12.7160    2.6480   -8.8160 O   0  0  0  0  0  0  0  0  0  0  0  0
   11.7300    0.9510   -7.2470 O   0  0  0  0  0  0  0  0  0  0  0  0
   14.1910    1.8360   -5.7470 P   0  0  0  0  0  0  0  0  0  0  0  0
   12.5330   -0.1360   -6.3730 P   0  0  2  0  0  0  0  0  0  0  0  0
   12.0900    1.1640   -8.8020 P   0  0  2  0  0  0  0  0  0  0  0  0
  1 14  1  0  0  0  0
  2 19  1  0  0  0  0
  3 20  1  0  0  0  0
  4 21  1  0  0  0  0
  5 22  1  0  0  0  0
  6 23  1  0  0  0  0
  7 23  1  0  0  0  0
  8 26  1  0  0  0  0
  9 28  1  0  0  0  0
 10 28  1  0  0  0  0
 11 29  1  0  0  0  0
 12 39  1  0  0  0  0
 13 40  1  0  0  0  0
 14 24  2  0  0  0  0
 14 27  1  0  0  0  0
 15 16  1  0  0  0  0
 15 17  2  0  0  0  0
 15 24  1  0  0  0  0
 16 25  1  0  0  0  0
 16 34  2  0  0  0  0
 17 26  1  0  0  0  0
 17 27  1  0  0  0  0
 18 25  2  0  0  0  0
 18 26  1  0  0  0  0
 18 28  1  0  0  0  0
 19 20  1  0  0  0  0
 19 21  1  0  0  0  0
 19 39  1  0  0  0  0
 20 22  1  0  0  0  0
 20 40  1  0  0  0  0
 21 23  1  0  0  0  0
 21 38  1  0  0  0  0
 22 27  1  0  0  0  0
 22 38  1  0  0  0  0
 23 41  1  0  0  0  0
 29 43  1  0  0  0  0
 29 44  1  0  0  0  0
 30 43  1  0  0  0  0
 31 43  1  0  0  0  0
 32 44  1  0  0  0  0
 33 45  1  0  0  0  0
 35 43  2  0  0  0  0
 36 44  2  0  0  0  0
 37 45  2  0  0  0  0
 41 45  1  0  0  0  0
 42 44  1  0  0  0  0
 42 45  1  0  0  0  0
M  CHG  4  30  -1  31  -1  32  -1  33  -1
M  END
> <scpdb_id>
2lwi_1

$$$$
