#    Name: 14203
#    Modification time : Tue Aug  8 21:17:52 2017

@<TRIPOS>MOLECULE
14203
   39     0     9     0     0
SMALL
NO_CHARGES


@<TRIPOS>ATOM
      1 N          -6.3740   97.7130   81.8270 N.am      1 SEL1        0.0000 
      2 O          -4.1630   91.8560   94.8510 O.2       2 ALL2        0.0000 
      3 CA         -2.2370   91.0620   99.8430 C.3       3 GLL5        0.0000 
      4 CA         -2.6070   90.8100   96.4570 C.3       3 GLL5        0.0000 
      5 CA         -2.5980   89.2790   96.6350 C.3       3 GLL5        0.0000 
      6 CA         -5.7760   90.8890   90.6630 C.3       3 GLL5        0.0000 
      7 CA         -4.0790   92.2700   88.8660 C.3       3 GLL5        0.0000 
      8 CA         -6.8400   92.5970   86.9760 C.3       3 GLL5        0.0000 
      9 CA         -6.1470   91.0240   89.3230 C.3       3 GLL5        0.0000 
     10 CA         -4.5660   91.4560   91.0810 C.3       3 GLL5        0.0000 
     11 N          -6.8840   97.8110   84.7730 N.am      4 SEP1        0.0000 
     12 O          -5.6220   90.9840   97.3690 O.2       5 ALP2        0.0000 
     13 CA         -4.7400   87.3490   99.9230 C.3       6 GLP5        0.0000 
     14 CA         -4.7070   93.2890   99.9720 C.3       6 GLP5        0.0000 
     15 CA         -4.3600   94.6820   97.9040 C.3       6 GLP5        0.0000 
     16 CA         -3.5240   85.6380   94.8720 C.3       6 GLP5        0.0000 
     17 CA         -5.5290   87.9790   98.7820 C.3       6 GLP5        0.0000 
     18 CA         -8.0530   88.5080   93.5790 C.3       6 GLP5        0.0000 
     19 CA         -1.3320   90.4280   86.5850 C.3       6 GLP5        0.0000 
     20 CA         -9.0750   91.9710   90.3180 C.3       6 GLP5        0.0000 
     21 CA         -9.9650   90.4680   84.9620 C.3       6 GLP5        0.0000 
     22 CA         -6.2930   95.0960   89.2650 C.3       6 GLP5        0.0000 
     23 CA         -4.7130   87.6500   90.0360 C.3       6 GLP5        0.0000 
     24 CA         -2.9630   87.9860   90.2890 C.3       6 GLP5        0.0000 
     25 N          -6.6290   97.7620   83.3000 N.am      7 SEC1        0.0000 
     26 O          -4.8925   91.4200   96.1100 O.2       8 ALC2        0.0000 
     27 CA         -3.4885   89.2055   99.8830 C.3       9 GLC5        0.0000 
     28 CA         -3.4720   92.1755   99.9075 C.3       9 GLC5        0.0000 
     29 CA         -3.4835   92.7460   97.1805 C.3       9 GLC5        0.0000 
     30 CA         -3.0610   87.4585   95.7535 C.3       9 GLC5        0.0000 
     31 CA         -4.0635   88.6290   97.7085 C.3       9 GLC5        0.0000 
     32 CA         -6.9145   89.6985   92.1210 C.3       9 GLC5        0.0000 
     33 CA         -2.7055   91.3490   87.7255 C.3       9 GLC5        0.0000 
     34 CA         -7.9575   92.2840   88.6470 C.3       9 GLC5        0.0000 
     35 CA         -8.4025   91.5325   85.9690 C.3       9 GLC5        0.0000 
     36 CA         -6.5665   93.8465   88.1205 C.3       9 GLC5        0.0000 
     37 CA         -7.3526   91.6546   89.7690 C.3       9 GLC5        0.0000 
     38 CA         -5.1716   89.4941   89.6280 C.3       9 GLC5        0.0000 
     39 CA         -3.6046   89.7844   90.7566 C.3       9 GLC5        0.0000 
@<TRIPOS>BOND
@<TRIPOS>SUBSTRUCTURE
     1 SEL1        1 GROUP        1 Z    SEL  0     ROOT SEL Z 0
     2 ALL2        2 GROUP        1 Z    ALL  0     **** ALL Z 1
     3 GLL5        3 GROUP        1 Z    GLL  0     **** GLL Z 4
     4 SEP1       11 GROUP        1 Z    SEP  0     **** SEP Z 7
     5 ALP2       12 GROUP        1 Z    ALP  0     **** ALP Z 8
     6 GLP5       13 GROUP        1 Z    GLP  0     **** GLP Z 11
     7 SEC1       25 GROUP        1 Z    SEC  0     **** SEC Z 14
     8 ALC2       26 GROUP        1 Z    ALC  0     **** ALC Z 15
     9 GLC5       27 GROUP        1 Z    GLC  0     **** GLC Z 18
@<TRIPOS>SET

