@<TRIPOS>MOLECULE
2fhj_MFN_4_ligand
   58    59     1     0     0
SMALL
NO_CHARGES


@<TRIPOS>ATOM
     1 C1          -6.7870    94.2460    82.3430 C.3          1 MFN901   0.0000
     2 O1          -6.3610    92.0400    83.5080 O.2          1 MFN901   0.0000
     3 C2          -6.7020    93.4180    83.5560 C.2          1 MFN901   0.0000
     4 O2          -5.6310    91.8410    87.1840 O.3          1 MFN901   0.0000
     5 C3          -6.9350    93.8610    84.7850 C.2          1 MFN901   0.0000
     6 O3          -2.7380    90.2320    94.1820 O.2          1 MFN901   0.0000
     7 C4          -6.7460    92.6970    85.5700 C.2          1 MFN901   0.0000
     8 O4           0.7940    87.5310    97.1060 O.co2        1 MFN901   0.0000
     9 C5          -6.3930    91.6350    84.7790 C.2          1 MFN901   0.0000
    10 O5          -0.8240    87.2430    95.6020 O.co2        1 MFN901  -1.0000
    11 C6          -4.5660    91.4560    91.0810 C.ar         1 MFN901   0.0000
    12 N3          -0.7140    89.8550    98.2320 N.am         1 MFN901   0.0000
    13 C21         -1.1420    90.0370    99.4840 C.2          1 MFN901   0.0000
    14 O6          -0.8390    89.2060   100.3450 O.2          1 MFN901   0.0000
    15 C22         -2.2370    91.0620    99.8430 C.3          1 MFN901   0.0000
    16 C19         -1.3480    88.8290    97.3720 C.3          1 MFN901   0.0000
    17 C20         -0.4400    87.8150    96.6290 C.2          1 MFN901   0.0000
    18 C16         -3.1040    91.0530    95.0340 C.2          1 MFN901   0.0000
    19 C17         -2.6070    90.8100    96.4570 C.3          1 MFN901   0.0000
    20 C18         -2.5980    89.2790    96.6350 C.3          1 MFN901   0.0000
    21 N2          -4.1630    91.8560    94.8510 N.am         1 MFN901   0.0000
    22 C15         -4.5440    92.3680    93.5150 C.3          1 MFN901   0.0000
    23 C12         -4.1450    91.2850    92.5310 C.3          1 MFN901   0.0000
    24 C11         -5.7760    90.8890    90.6630 C.ar         1 MFN901   0.0000
    25 C10         -6.1470    91.0240    89.3230 C.ar         1 MFN901   0.0000
    26 C7          -3.7080    92.1340    90.2040 C.ar         1 MFN901   0.0000
    27 C8          -4.0790    92.2700    88.8660 C.ar         1 MFN901   0.0000
    28 C9          -5.2990    91.7200    88.4470 C.ar         1 MFN901   0.0000
    29 C13         -6.8400    92.5970    86.9760 C.3          1 MFN901   0.0000
    30 N1          -6.3410    95.6150    82.6140 N.am         1 MFN901   0.0000
    31 C35         -6.3050    96.5150    81.5750 C.2          1 MFN901   0.0000
    32 O16         -6.3740    97.7130    81.8270 O.2          1 MFN901   0.0000
    33 H1          -7.7353    94.2670    82.0264 H            1 MFN901   0.0000
    34 H2          -6.2071    93.8470    81.6326 H            1 MFN901   0.0000
    35 H3          -7.1817    94.7835    85.0820 H            1 MFN901   0.0000
    36 H4          -6.1926    90.7097    85.1010 H            1 MFN901   0.0000
    37 H5           0.0356    90.4122    97.8746 H            1 MFN901   0.0000
    38 H6          -2.4063    91.0376   100.8283 H            1 MFN901   0.0000
    39 H7          -1.9353    91.9782    99.5792 H            1 MFN901   0.0000
    40 H8          -3.0794    90.8348    99.3543 H            1 MFN901   0.0000
    41 H9          -1.7520    88.2346    98.0673 H            1 MFN901   0.0000
    42 H10         -3.2234    91.2352    97.1198 H            1 MFN901   0.0000
    43 H11         -1.6855    91.1807    96.5733 H            1 MFN901   0.0000
    44 H12         -3.4042    89.0051    97.1594 H            1 MFN901   0.0000
    45 H13         -2.6223    88.8441    95.7348 H            1 MFN901   0.0000
    46 H14         -4.7136    92.1176    95.6437 H            1 MFN901   0.0000
    47 H15         -4.0560    93.2176    93.3151 H            1 MFN901   0.0000
    48 H16         -5.5296    92.5318    93.4725 H            1 MFN901   0.0000
    49 H17         -3.1472    91.2208    92.5464 H            1 MFN901   0.0000
    50 H18         -4.5394    90.4258    92.8569 H            1 MFN901   0.0000
    51 H19         -6.3612    90.3987    91.3088 H            1 MFN901   0.0000
    52 H20         -7.0047    90.6303    88.9923 H            1 MFN901   0.0000
    53 H21         -2.8434    92.5143    90.5323 H            1 MFN901   0.0000
    54 H22         -3.4868    92.7500    88.2188 H            1 MFN901   0.0000
    55 H23         -6.8139    93.4902    87.4250 H            1 MFN901   0.0000
    56 H24         -7.6565    92.1000    87.2698 H            1 MFN901   0.0000
    57 H25         -6.0682    95.8894    83.5361 H            1 MFN901   0.0000
    58 H26         -6.2239    96.1979    80.6301 H            1 MFN901   0.0000
@<TRIPOS>BOND
     1    1    3       1
     2    1   30       1
     3    2    3       1
     4    2    9       1
     5    3    5       2
     6    4   28       1
     7    4   29       1
     8    5    7       1
     9    6   18       2
    10    7    9       2
    11    7   29       1
    12    8   17      ar
    13   10   17      ar
    14   11   23       1
    15   11   24      ar
    16   11   26      ar
    17   12   13      am
    18   12   16       1
    19   13   14       2
    20   13   15       1
    21   16   17       1
    22   16   20       1
    23   18   19       1
    24   18   21      am
    25   19   20       1
    26   21   22       1
    27   22   23       1
    28   24   25      ar
    29   25   28      ar
    30   26   27      ar
    31   27   28      ar
    32   30   31      am
    33   31   32       2
    34    1   33       1
    35    1   34       1
    36    5   35       1
    37   31   58       1
    38    9   36       1
    39   12   37       1
    40   15   38       1
    41   15   39       1
    42   15   40       1
    43   16   41       1
    44   19   42       1
    45   19   43       1
    46   20   44       1
    47   20   45       1
    48   21   46       1
    49   22   47       1
    50   22   48       1
    51   23   49       1
    52   23   50       1
    53   24   51       1
    54   25   52       1
    55   26   53       1
    56   27   54       1
    57   29   55       1
    58   29   56       1
    59   30   57       1
@<TRIPOS>SUBSTRUCTURE
     1 MFN901      1 GROUP             4 C     MFN     0 **** MFN C 901
