2fhj_MFN_4_ligand
  -OEChem-08111718373D

 58 59  0     1  0  0  0  0  0999 V2000
   -6.3612   90.3987   91.3088 H   0  0  0  0  0  0  0  0  0  0  0  0
   -2.8434   92.5143   90.5323 H   0  0  0  0  0  0  0  0  0  0  0  0
   -7.0047   90.6303   88.9923 H   0  0  0  0  0  0  0  0  0  0  0  0
   -3.4868   92.7500   88.2188 H   0  0  0  0  0  0  0  0  0  0  0  0
   -7.1817   94.7835   85.0820 H   0  0  0  0  0  0  0  0  0  0  0  0
   -6.1926   90.7097   85.1010 H   0  0  0  0  0  0  0  0  0  0  0  0
   -6.2239   96.1979   80.6301 H   0  0  0  0  0  0  0  0  0  0  0  0
   -2.4063   91.0376  100.8283 H   0  0  0  0  0  0  0  0  0  0  0  0
   -1.9353   91.9782   99.5792 H   0  0  0  0  0  0  0  0  0  0  0  0
   -3.0794   90.8348   99.3543 H   0  0  0  0  0  0  0  0  0  0  0  0
   -3.1472   91.2208   92.5464 H   0  0  0  0  0  0  0  0  0  0  0  0
   -4.5394   90.4258   92.8569 H   0  0  0  0  0  0  0  0  0  0  0  0
   -6.8139   93.4902   87.4250 H   0  0  0  0  0  0  0  0  0  0  0  0
   -7.6565   92.1000   87.2698 H   0  0  0  0  0  0  0  0  0  0  0  0
   -7.7353   94.2670   82.0264 H   0  0  0  0  0  0  0  0  0  0  0  0
   -6.2071   93.8470   81.6326 H   0  0  0  0  0  0  0  0  0  0  0  0
   -3.2234   91.2352   97.1198 H   0  0  0  0  0  0  0  0  0  0  0  0
   -1.6855   91.1807   96.5733 H   0  0  0  0  0  0  0  0  0  0  0  0
   -3.4042   89.0051   97.1594 H   0  0  0  0  0  0  0  0  0  0  0  0
   -2.6223   88.8441   95.7348 H   0  0  0  0  0  0  0  0  0  0  0  0
   -4.0560   93.2176   93.3151 H   0  0  0  0  0  0  0  0  0  0  0  0
   -5.5296   92.5318   93.4725 H   0  0  0  0  0  0  0  0  0  0  0  0
   -1.7520   88.2346   98.0673 H   0  0  0  0  0  0  0  0  0  0  0  0
   -6.0682   95.8894   83.5361 H   0  0  0  0  0  0  0  0  0  0  0  0
   -4.7136   92.1176   95.6437 H   0  0  0  0  0  0  0  0  0  0  0  0
    0.0356   90.4122   97.8746 H   0  0  0  0  0  0  0  0  0  0  0  0
   -5.7760   90.8890   90.6630 C   0  0  0  0  0  0  0  0  0  0  0  0
   -3.7080   92.1340   90.2040 C   0  0  0  0  0  0  0  0  0  0  0  0
   -6.1470   91.0240   89.3230 C   0  0  0  0  0  0  0  0  0  0  0  0
   -4.0790   92.2700   88.8660 C   0  0  0  0  0  0  0  0  0  0  0  0
   -6.9350   93.8610   84.7850 C   0  0  0  0  0  0  0  0  0  0  0  0
   -6.3930   91.6350   84.7790 C   0  0  0  0  0  0  0  0  0  0  0  0
   -4.5660   91.4560   91.0810 C   0  0  0  0  0  0  0  0  0  0  0  0
   -6.7460   92.6970   85.5700 C   0  0  0  0  0  0  0  0  0  0  0  0
   -5.2990   91.7200   88.4470 C   0  0  0  0  0  0  0  0  0  0  0  0
   -6.7020   93.4180   83.5560 C   0  0  0  0  0  0  0  0  0  0  0  0
   -6.3050   96.5150   81.5750 C   0  0  0  0  0  0  0  0  0  0  0  0
   -1.1420   90.0370   99.4840 C   0  0  0  0  0  0  0  0  0  0  0  0
   -3.1040   91.0530   95.0340 C   0  0  0  0  0  0  0  0  0  0  0  0
   -0.4400   87.8150   96.6290 C   0  0  0  0  0  0  0  0  0  0  0  0
   -2.2370   91.0620   99.8430 C   0  0  0  0  0  0  0  0  0  0  0  0
   -4.1450   91.2850   92.5310 C   0  0  2  0  0  0  0  0  0  0  0  0
   -6.8400   92.5970   86.9760 C   0  0  1  0  0  0  0  0  0  0  0  0
   -6.7870   94.2460   82.3430 C   0  0  2  0  0  0  0  0  0  0  0  0
   -2.6070   90.8100   96.4570 C   0  0  2  0  0  0  0  0  0  0  0  0
   -2.5980   89.2790   96.6350 C   0  0  1  0  0  0  0  0  0  0  0  0
   -4.5440   92.3680   93.5150 C   0  0  1  0  0  0  0  0  0  0  0  0
   -1.3480   88.8290   97.3720 C   0  0  2  0  0  0  0  0  0  0  0  0
   -6.3410   95.6150   82.6140 N   0  0  0  0  0  0  0  0  0  0  0  0
   -4.1630   91.8560   94.8510 N   0  0  0  0  0  0  0  0  0  0  0  0
   -0.7140   89.8550   98.2320 N   0  0  0  0  0  0  0  0  0  0  0  0
   -0.8240   87.2430   95.6020 O   0  5  0  0  0  0  0  0  0  0  0  0
   -6.3740   97.7130   81.8270 O   0  0  0  0  0  0  0  0  0  0  0  0
   -0.8390   89.2060  100.3450 O   0  0  0  0  0  0  0  0  0  0  0  0
   -2.7380   90.2320   94.1820 O   0  0  0  0  0  0  0  0  0  0  0  0
    0.7940   87.5310   97.1060 O   0  0  0  0  0  0  0  0  0  0  0  0
   -6.3610   92.0400   83.5080 O   0  0  0  0  0  0  0  0  0  0  0  0
   -5.6310   91.8410   87.1840 O   0  0  0  0  0  0  0  0  0  0  0  0
  1 27  1  0  0  0  0
  2 28  1  0  0  0  0
  3 29  1  0  0  0  0
  4 30  1  0  0  0  0
  5 31  1  0  0  0  0
  6 32  1  0  0  0  0
  7 37  1  0  0  0  0
  8 41  1  0  0  0  0
  9 41  1  0  0  0  0
 10 41  1  0  0  0  0
 11 42  1  0  0  0  0
 12 42  1  0  0  0  0
 13 43  1  0  0  0  0
 14 43  1  0  0  0  0
 15 44  1  0  0  0  0
 16 44  1  0  0  0  0
 17 45  1  0  0  0  0
 18 45  1  0  0  0  0
 19 46  1  0  0  0  0
 20 46  1  0  0  0  0
 21 47  1  0  0  0  0
 22 47  1  0  0  0  0
 23 48  1  0  0  0  0
 24 49  1  0  0  0  0
 25 50  1  0  0  0  0
 26 51  1  0  0  0  0
 27 29  1  0  0  0  0
 27 33  2  0  0  0  0
 28 30  2  0  0  0  0
 28 33  1  0  0  0  0
 29 35  2  0  0  0  0
 30 35  1  0  0  0  0
 31 34  1  0  0  0  0
 31 36  2  0  0  0  0
 32 34  2  0  0  0  0
 32 57  1  0  0  0  0
 33 42  1  0  0  0  0
 34 43  1  0  0  0  0
 35 58  1  0  0  0  0
 36 44  1  0  0  0  0
 36 57  1  0  0  0  0
 37 49  1  0  0  0  0
 37 53  2  0  0  0  0
 38 41  1  0  0  0  0
 38 51  1  0  0  0  0
 38 54  2  0  0  0  0
 39 45  1  0  0  0  0
 39 50  1  0  0  0  0
 39 55  2  0  0  0  0
 40 48  1  0  0  0  0
 40 52  1  0  0  0  0
 40 56  2  0  0  0  0
 42 47  1  0  0  0  0
 43 58  1  0  0  0  0
 44 49  1  0  0  0  0
 45 46  1  0  0  0  0
 46 48  1  0  0  0  0
 47 50  1  0  0  0  0
 48 51  1  0  0  0  0
M  CHG  1  52  -1
M  END
> <scpdb_id>
2fhj_4

$$$$
