#    Name: 18257
#    Modification time : Wed Aug  9 00:55:40 2017

@<TRIPOS>MOLECULE
18257
   67     0     9     0     0
SMALL
NO_CHARGES


@<TRIPOS>ATOM
      1 N          15.1120   35.6960   18.7270 N.am      1 SEL1        0.0000 
      2 N          20.0180   28.4520   16.5290 N.am      1 SEL1        0.0000 
      3 O          20.0180   28.4520   16.5290 O.2       2 ALL2        0.0000 
      4 O          20.5600   28.4090   13.5660 O.2       2 ALL2        0.0000 
      5 O          25.4730   26.9220   10.6600 O.2       2 ALL2        0.0000 
      6 CA         17.3360   33.5400   15.8980 C.3       3 GLL5        0.0000 
      7 CA         16.8070   37.2670   17.4970 C.3       3 GLL5        0.0000 
      8 CA         16.3590   32.8690   16.6450 C.3       3 GLL5        0.0000 
      9 CA         22.4140   32.6170   14.9630 C.3       3 GLL5        0.0000 
     10 CA         22.5300   33.6430   17.2740 C.3       3 GLL5        0.0000 
     11 CA         24.1510   26.8190   10.9330 C.3       3 GLL5        0.0000 
     12 CA         23.5260   27.8440   11.6340 C.3       3 GLL5        0.0000 
     13 CA         15.5950   33.5260   17.6090 C.3       3 GLL5        0.0000 
     14 CA         17.9810   26.8290   12.3090 C.3       3 GLL5        0.0000 
     15 CA         17.3230   27.5230   10.1020 C.3       3 GLL5        0.0000 
     16 CA         17.5920   29.1580   11.8600 C.3       3 GLL5        0.0000 
     17 CA         23.4540   25.6830   10.5210 C.3       3 GLL5        0.0000 
     18 CA         17.6780   26.5180   10.9930 C.3       3 GLL5        0.0000 
     19 N          14.0660   34.3140   21.4180 N.am      4 SEP1        0.0000 
     20 N          21.7280   27.8470   18.3310 N.am      4 SEP1        0.0000 
     21 O          17.6510   28.1540   17.4560 O.2       5 ALP2        0.0000 
     22 O          20.2050   25.4430   14.6040 O.2       5 ALP2        0.0000 
     23 O          26.6570   24.6460    9.5900 O.2       5 ALP2        0.0000 
     24 CA         14.7490   33.3210   12.4610 C.3       6 GLP5        0.0000 
     25 CA         14.1980   38.5230   14.7760 C.3       6 GLP5        0.0000 
     26 CA         14.4960   29.6170   14.2820 C.3       6 GLP5        0.0000 
     27 CA         23.9900   36.5600   14.0910 C.3       6 GLP5        0.0000 
     28 CA         25.8430   29.7280   15.0570 C.3       6 GLP5        0.0000 
     29 CA         24.4880   32.8300   11.1870 C.3       6 GLP5        0.0000 
     30 CA         23.5070   32.3620   20.9250 C.3       6 GLP5        0.0000 
     31 CA         25.5560   35.1790   18.3310 C.3       6 GLP5        0.0000 
     32 CA         26.0090   31.5060   17.4970 C.3       6 GLP5        0.0000 
     33 CA         28.0600   24.8570   11.5010 C.3       6 GLP5        0.0000 
     34 CA         24.8450   31.4220   11.5760 C.3       6 GLP5        0.0000 
     35 CA         16.1480   30.8600   19.5110 C.3       6 GLP5        0.0000 
     36 CA         12.0550   33.2480   16.0490 C.3       6 GLP5        0.0000 
     37 CA         16.3560   24.4470   14.7550 C.3       6 GLP5        0.0000 
     38 CA         14.8570   28.7860    7.6880 C.3       6 GLP5        0.0000 
     39 CA         16.8140   33.1470   10.9320 C.3       6 GLP5        0.0000 
     40 CA         24.1210   22.1380   11.6390 C.3       6 GLP5        0.0000 
     41 CA         23.9810   26.5650   15.4070 C.3       6 GLP5        0.0000 
     42 CA         14.4860   26.3930   11.6700 C.3       6 GLP5        0.0000 
     43 N          14.5890   35.0050   20.0725 N.am      7 SEC1        0.0000 
     44 N          20.8730   28.1495   17.4300 N.am      7 SEC1        0.0000 
     45 O          18.8345   28.3030   16.9925 O.2       8 ALC2        0.0000 
     46 O          20.3825   26.9260   14.0850 O.2       8 ALC2        0.0000 
     47 O          26.0650   25.7840   10.1250 O.2       8 ALC2        0.0000 
     48 CA         16.0425   33.4305   14.1795 C.3       9 GLC5        0.0000 
     49 CA         15.5025   37.8950   16.1365 C.3       9 GLC5        0.0000 
     50 CA         15.4275   31.2430   15.4635 C.3       9 GLC5        0.0000 
     51 CA         23.2020   34.5885   14.5270 C.3       9 GLC5        0.0000 
     52 CA         24.1285   31.1725   15.0100 C.3       9 GLC5        0.0000 
     53 CA         23.4510   32.7235   13.0750 C.3       9 GLC5        0.0000 
     54 CA         23.0185   33.0025   19.0995 C.3       9 GLC5        0.0000 
     55 CA         24.0430   34.4110   17.8025 C.3       9 GLC5        0.0000 
     56 CA         24.2695   32.5745   17.3855 C.3       9 GLC5        0.0000 
     57 CA         26.1055   25.8380   11.2170 C.3       9 GLC5        0.0000 
     58 CA         24.1855   29.6330   11.6050 C.3       9 GLC5        0.0000 
     59 CA         16.0625   32.0288   18.3190 C.3       9 GLC5        0.0000 
     60 CA         14.0160   33.2227   16.5880 C.3       9 GLC5        0.0000 
     61 CA         17.0928   25.5602   13.2030 C.3       9 GLC5        0.0000 
     62 CA         16.0805   28.4850    9.0030 C.3       9 GLC5        0.0000 
     63 CA         17.1262   31.0742   11.0645 C.3       9 GLC5        0.0000 
     64 CA         16.1767   29.1773   13.4755 C.3       9 GLC5        0.0000 
     65 CA         23.4495   23.8835   11.1520 C.3       9 GLC5        0.0000 
     66 CA         23.7418   26.9344   13.3825 C.3       9 GLC5        0.0000 
     67 CA         16.0629   27.0333   11.5209 C.3       9 GLC5        0.0000 
@<TRIPOS>BOND
@<TRIPOS>SUBSTRUCTURE
     1 SEL1        1 GROUP        1 Z    SEL  0     ROOT SEL Z 0
     2 ALL2        3 GROUP        1 Z    ALL  0     **** ALL Z 1
     3 GLL5        6 GROUP        1 Z    GLL  0     **** GLL Z 4
     4 SEP1       19 GROUP        1 Z    SEP  0     **** SEP Z 7
     5 ALP2       21 GROUP        1 Z    ALP  0     **** ALP Z 8
     6 GLP5       24 GROUP        1 Z    GLP  0     **** GLP Z 11
     7 SEC1       43 GROUP        1 Z    SEC  0     **** SEC Z 14
     8 ALC2       45 GROUP        1 Z    ALC  0     **** ALC Z 15
     9 GLC5       48 GROUP        1 Z    GLC  0     **** GLC Z 18
@<TRIPOS>SET

