2qi6_MZ8_1_ligand
  -OEChem-08111718373D

 69 72  0     1  0  0  0  0  0999 V2000
   17.0959   27.2973    9.1546 H   0  0  0  0  0  0  0  0  0  0  0  0
   17.7150   25.5677   10.6839 H   0  0  0  0  0  0  0  0  0  0  0  0
   17.0374   29.5723    9.8939 H   0  0  0  0  0  0  0  0  0  0  0  0
   21.5867   24.7665   10.5247 H   0  0  0  0  0  0  0  0  0  0  0  0
   20.4904   26.5440   11.6904 H   0  0  0  0  0  0  0  0  0  0  0  0
   18.2292   26.0990   12.9458 H   0  0  0  0  0  0  0  0  0  0  0  0
   17.5590   30.1093   12.1664 H   0  0  0  0  0  0  0  0  0  0  0  0
   14.9204   33.0109   18.1378 H   0  0  0  0  0  0  0  0  0  0  0  0
   23.9244   24.9543   10.0233 H   0  0  0  0  0  0  0  0  0  0  0  0
   16.2056   31.8942   16.4828 H   0  0  0  0  0  0  0  0  0  0  0  0
   24.0429   28.6513   11.9188 H   0  0  0  0  0  0  0  0  0  0  0  0
   18.1706   35.4351   15.6276 H   0  0  0  0  0  0  0  0  0  0  0  0
   15.1590   37.7036   19.2211 H   0  0  0  0  0  0  0  0  0  0  0  0
   23.3850   32.3882   15.0325 H   0  0  0  0  0  0  0  0  0  0  0  0
   21.9462   31.9225   14.4163 H   0  0  0  0  0  0  0  0  0  0  0  0
   22.3125   33.5102   14.5249 H   0  0  0  0  0  0  0  0  0  0  0  0
   23.5052   33.4220   17.2882 H   0  0  0  0  0  0  0  0  0  0  0  0
   22.4041   34.5741   16.9316 H   0  0  0  0  0  0  0  0  0  0  0  0
   22.1594   33.5756   18.2004 H   0  0  0  0  0  0  0  0  0  0  0  0
   17.5700   29.0227   14.6075 H   0  0  0  0  0  0  0  0  0  0  0  0
   18.4073   27.6245   14.7105 H   0  0  0  0  0  0  0  0  0  0  0  0
   19.9559   32.9981   17.2830 H   0  0  0  0  0  0  0  0  0  0  0  0
   20.1839   33.9217   15.9558 H   0  0  0  0  0  0  0  0  0  0  0  0
   18.3049   30.5454   16.1771 H   0  0  0  0  0  0  0  0  0  0  0  0
   19.5193   30.8797   17.2164 H   0  0  0  0  0  0  0  0  0  0  0  0
   21.8940   31.7515   16.7624 H   0  0  0  0  0  0  0  0  0  0  0  0
   19.5117   30.1208   13.7520 H   0  0  0  0  0  0  0  0  0  0  0  0
   21.0503   29.8923   15.6185 H   0  0  0  0  0  0  0  0  0  0  0  0
   20.5615   27.4385   13.8073 H   0  0  0  0  0  0  0  0  0  0  0  0
   25.9405   26.1879   10.1675 H   0  0  0  0  0  0  0  0  0  0  0  0
   19.1392   28.4487   17.0062 H   0  0  0  0  0  0  0  0  0  0  0  0
   17.3230   27.5230   10.1020 C   0  0  0  0  0  0  0  0  0  0  0  0
   17.6780   26.5180   10.9930 C   0  0  0  0  0  0  0  0  0  0  0  0
   17.2850   28.8450   10.5340 C   0  0  0  0  0  0  0  0  0  0  0  0
   22.1020   25.5750   10.8090 C   0  0  0  0  0  0  0  0  0  0  0  0
   21.4700   26.6080   11.5000 C   0  0  0  0  0  0  0  0  0  0  0  0
   17.9810   26.8290   12.3090 C   0  0  0  0  0  0  0  0  0  0  0  0
   17.5920   29.1580   11.8600 C   0  0  0  0  0  0  0  0  0  0  0  0
   15.5950   33.5260   17.6090 C   0  0  0  0  0  0  0  0  0  0  0  0
   23.4540   25.6830   10.5210 C   0  0  0  0  0  0  0  0  0  0  0  0
   16.3590   32.8690   16.6450 C   0  0  0  0  0  0  0  0  0  0  0  0
   23.5260   27.8440   11.6340 C   0  0  0  0  0  0  0  0  0  0  0  0
   17.4880   34.9220   16.1480 C   0  0  0  0  0  0  0  0  0  0  0  0
   15.5420   36.9760   18.6520 C   0  0  0  0  0  0  0  0  0  0  0  0
   22.1820   27.7330   11.9320 C   0  0  0  0  0  0  0  0  0  0  0  0
   17.9430   28.1560   12.7560 C   0  0  0  0  0  0  0  0  0  0  0  0
   15.7570   34.8860   17.8460 C   0  0  0  0  0  0  0  0  0  0  0  0
   24.1510   26.8190   10.9330 C   0  0  0  0  0  0  0  0  0  0  0  0
   16.7060   35.6050   17.1110 C   0  0  0  0  0  0  0  0  0  0  0  0
   17.3360   33.5400   15.8980 C   0  0  0  0  0  0  0  0  0  0  0  0
   21.4160   28.8060   12.6320 C   0  0  0  0  0  0  0  0  0  0  0  0
   22.4140   32.6170   14.9630 C   0  0  0  0  0  0  0  0  0  0  0  0
   22.5300   33.6430   17.2740 C   0  0  0  0  0  0  0  0  0  0  0  0
   18.3030   28.4780   14.2000 C   0  0  1  0  0  0  0  0  0  0  0  0
   20.3050   33.0090   16.3460 C   0  0  1  0  0  0  0  0  0  0  0  0
   19.2780   30.7630   16.2530 C   0  0  1  0  0  0  0  0  0  0  0  0
   21.8000   32.6630   16.3620 C   0  0  1  0  0  0  0  0  0  0  0  0
   19.6190   29.2710   14.2680 C   0  0  1  0  0  0  0  0  0  0  0  0
   20.0940   29.6050   15.6720 C   0  0  2  0  0  0  0  0  0  0  0  0
   15.1120   35.6960   18.7270 N   0  0  0  0  0  0  0  0  0  0  0  0
   20.5600   28.4090   13.5660 N   0  0  0  0  0  0  0  0  0  0  0  0
   19.5460   32.0280   15.5330 N   0  0  1  0  0  0  0  0  0  0  0  0
   21.5770   29.9590   12.2540 O   0  0  0  0  0  0  0  0  0  0  0  0
   18.7210   33.4810   13.7780 O   0  0  0  0  0  0  0  0  0  0  0  0
   17.4440   31.5890   14.2840 O   0  0  0  0  0  0  0  0  0  0  0  0
   25.4730   26.9220   10.6600 O   0  0  0  0  0  0  0  0  0  0  0  0
   20.0180   28.4520   16.5290 O   0  0  0  0  0  0  0  0  0  0  0  0
   16.8070   37.2670   17.4970 S   0  0  0  0  0  0  0  0  0  0  0  0
   18.2190   32.6640   14.8350 S   0  0  2  0  0  0  0  0  0  0  0  0
  1 32  1  0  0  0  0
  2 33  1  0  0  0  0
  3 34  1  0  0  0  0
  4 35  1  0  0  0  0
  5 36  1  0  0  0  0
  6 37  1  0  0  0  0
  7 38  1  0  0  0  0
  8 39  1  0  0  0  0
  9 40  1  0  0  0  0
 10 41  1  0  0  0  0
 11 42  1  0  0  0  0
 12 43  1  0  0  0  0
 13 44  1  0  0  0  0
 14 52  1  0  0  0  0
 15 52  1  0  0  0  0
 16 52  1  0  0  0  0
 17 53  1  0  0  0  0
 18 53  1  0  0  0  0
 19 53  1  0  0  0  0
 20 54  1  0  0  0  0
 21 54  1  0  0  0  0
 22 55  1  0  0  0  0
 23 55  1  0  0  0  0
 24 56  1  0  0  0  0
 25 56  1  0  0  0  0
 26 57  1  0  0  0  0
 27 58  1  0  0  0  0
 28 59  1  0  0  0  0
 29 61  1  0  0  0  0
 30 66  1  0  0  0  0
 31 67  1  0  0  0  0
 32 33  2  0  0  0  0
 32 34  1  0  0  0  0
 33 37  1  0  0  0  0
 34 38  2  0  0  0  0
 35 36  1  0  0  0  0
 35 40  2  0  0  0  0
 36 45  2  0  0  0  0
 37 46  2  0  0  0  0
 38 46  1  0  0  0  0
 39 41  2  0  0  0  0
 39 47  1  0  0  0  0
 40 48  1  0  0  0  0
 41 50  1  0  0  0  0
 42 45  1  0  0  0  0
 42 48  2  0  0  0  0
 43 49  1  0  0  0  0
 43 50  2  0  0  0  0
 44 60  2  0  0  0  0
 44 68  1  0  0  0  0
 45 51  1  0  0  0  0
 46 54  1  0  0  0  0
 47 49  2  0  0  0  0
 47 60  1  0  0  0  0
 48 66  1  0  0  0  0
 49 68  1  0  0  0  0
 50 69  1  0  0  0  0
 51 61  1  0  0  0  0
 51 63  2  0  0  0  0
 52 57  1  0  0  0  0
 53 57  1  0  0  0  0
 54 58  1  0  0  0  0
 55 57  1  0  0  0  0
 55 62  1  0  0  0  0
 56 59  1  0  0  0  0
 56 62  1  0  0  0  0
 58 59  1  0  0  0  0
 58 61  1  0  0  0  0
 59 67  1  0  0  0  0
 62 69  1  0  0  0  0
 64 69  2  0  0  0  0
 65 69  2  0  0  0  0
M  END
> <scpdb_id>
2qi6_1

$$$$
