@<TRIPOS>MOLECULE
2qi6_MZ8_1_ligand
   69    72     1     0     0
SMALL
NO_CHARGES


@<TRIPOS>ATOM
     1 O9          18.7210    33.4810    13.7780 O.2          1 MZ8200   0.0000
     2 S8          18.2190    32.6640    14.8350 S.o2         1 MZ8200   0.0000
     3 O10         17.4440    31.5890    14.2840 O.2          1 MZ8200   0.0000
     4 C5          17.3360    33.5400    15.8980 C.ar         1 MZ8200   0.0000
     5 C4          17.4880    34.9220    16.1480 C.ar         1 MZ8200   0.0000
     6 C3          16.7060    35.6050    17.1110 C.ar         1 MZ8200   0.0000
     7 S1          16.8070    37.2670    17.4970 S.3          1 MZ8200   0.0000
     8 C1          15.5420    36.9760    18.6520 C.2          1 MZ8200   0.0000
     9 N1          15.1120    35.6960    18.7270 N.2          1 MZ8200   0.0000
    10 C2          15.7570    34.8860    17.8460 C.ar         1 MZ8200   0.0000
    11 C7          15.5950    33.5260    17.6090 C.ar         1 MZ8200   0.0000
    12 C6          16.3590    32.8690    16.6450 C.ar         1 MZ8200   0.0000
    13 N11         19.5460    32.0280    15.5330 N.3          1 MZ8200   0.0000
    14 C12         20.3050    33.0090    16.3460 C.3          1 MZ8200   0.0000
    15 C13         21.8000    32.6630    16.3620 C.3          1 MZ8200   0.0000
    16 C14         22.4140    32.6170    14.9630 C.3          1 MZ8200   0.0000
    17 C15         22.5300    33.6430    17.2740 C.3          1 MZ8200   0.0000
    18 C16         19.2780    30.7630    16.2530 C.3          1 MZ8200   0.0000
    19 C17         20.0940    29.6050    15.6720 C.3          1 MZ8200   0.0000
    20 O18         20.0180    28.4520    16.5290 O.3          1 MZ8200   0.0000
    21 C19         19.6190    29.2710    14.2680 C.3          1 MZ8200   0.0000
    22 C32         18.3030    28.4780    14.2000 C.3          1 MZ8200   0.0000
    23 C38         17.9430    28.1560    12.7560 C.ar         1 MZ8200   0.0000
    24 C33         17.9810    26.8290    12.3090 C.ar         1 MZ8200   0.0000
    25 C34         17.6780    26.5180    10.9930 C.ar         1 MZ8200   0.0000
    26 C35         17.3230    27.5230    10.1020 C.ar         1 MZ8200   0.0000
    27 C36         17.2850    28.8450    10.5340 C.ar         1 MZ8200   0.0000
    28 C37         17.5920    29.1580    11.8600 C.ar         1 MZ8200   0.0000
    29 N20         20.5600    28.4090    13.5660 N.am         1 MZ8200   0.0000
    30 C21         21.4160    28.8060    12.6320 C.2          1 MZ8200   0.0000
    31 O22         21.5770    29.9590    12.2540 O.2          1 MZ8200   0.0000
    32 C22         22.1820    27.7330    11.9320 C.ar         1 MZ8200   0.0000
    33 C23         21.4700    26.6080    11.5000 C.ar         1 MZ8200   0.0000
    34 C24         22.1020    25.5750    10.8090 C.ar         1 MZ8200   0.0000
    35 C25         23.4540    25.6830    10.5210 C.ar         1 MZ8200   0.0000
    36 C26         24.1510    26.8190    10.9330 C.ar         1 MZ8200   0.0000
    37 O27         25.4730    26.9220    10.6600 O.3          1 MZ8200   0.0000
    38 C27         23.5260    27.8440    11.6340 C.ar         1 MZ8200   0.0000
    39 H1          18.1706    35.4351    15.6276 H            1 MZ8200   0.0000
    40 H2          15.1590    37.7036    19.2211 H            1 MZ8200   0.0000
    41 H3          14.9204    33.0109    18.1378 H            1 MZ8200   0.0000
    42 H4          16.2056    31.8942    16.4828 H            1 MZ8200   0.0000
    43 H5          19.9559    32.9981    17.2830 H            1 MZ8200   0.0000
    44 H6          20.1839    33.9217    15.9558 H            1 MZ8200   0.0000
    45 H7          21.8940    31.7515    16.7624 H            1 MZ8200   0.0000
    46 H8          23.3850    32.3882    15.0325 H            1 MZ8200   0.0000
    47 H9          21.9462    31.9225    14.4163 H            1 MZ8200   0.0000
    48 H10         22.3125    33.5102    14.5249 H            1 MZ8200   0.0000
    49 H11         23.5052    33.4220    17.2882 H            1 MZ8200   0.0000
    50 H12         22.4041    34.5741    16.9316 H            1 MZ8200   0.0000
    51 H13         22.1594    33.5756    18.2004 H            1 MZ8200   0.0000
    52 H14         18.3049    30.5454    16.1771 H            1 MZ8200   0.0000
    53 H15         19.5193    30.8797    17.2164 H            1 MZ8200   0.0000
    54 H16         21.0503    29.8923    15.6185 H            1 MZ8200   0.0000
    55 H17         19.1392    28.4487    17.0062 H            1 MZ8200   0.0000
    56 H18         19.5117    30.1208    13.7520 H            1 MZ8200   0.0000
    57 H19         17.5700    29.0227    14.6075 H            1 MZ8200   0.0000
    58 H20         18.4073    27.6245    14.7105 H            1 MZ8200   0.0000
    59 H21         18.2292    26.0990    12.9458 H            1 MZ8200   0.0000
    60 H22         17.7150    25.5677    10.6839 H            1 MZ8200   0.0000
    61 H23         17.0959    27.2973     9.1546 H            1 MZ8200   0.0000
    62 H24         17.0374    29.5723     9.8939 H            1 MZ8200   0.0000
    63 H25         17.5590    30.1093    12.1664 H            1 MZ8200   0.0000
    64 H26         20.5615    27.4385    13.8073 H            1 MZ8200   0.0000
    65 H27         20.4904    26.5440    11.6904 H            1 MZ8200   0.0000
    66 H28         21.5867    24.7665    10.5247 H            1 MZ8200   0.0000
    67 H29         23.9244    24.9543    10.0233 H            1 MZ8200   0.0000
    68 H30         25.9405    26.1879    10.1675 H            1 MZ8200   0.0000
    69 H31         24.0429    28.6513    11.9188 H            1 MZ8200   0.0000
@<TRIPOS>BOND
     1    1    2       2
     2    2    3       2
     3    2    4       1
     4    2   13       1
     5    4    5      ar
     6    4   12      ar
     7    5    6      ar
     8    6    7       1
     9    6   10      ar
    10    7    8       1
    11    8    9       2
    12    9   10       1
    13   10   11      ar
    14   11   12      ar
    15   13   14       1
    16   13   18       1
    17   14   15       1
    18   15   16       1
    19   15   17       1
    20   18   19       1
    21   19   20       1
    22   19   21       1
    23   21   22       1
    24   21   29       1
    25   22   23       1
    26   23   24      ar
    27   23   28      ar
    28   24   25      ar
    29   25   26      ar
    30   26   27      ar
    31   27   28      ar
    32   29   30      am
    33   30   31       2
    34   30   32       1
    35   32   33      ar
    36   32   38      ar
    37   33   34      ar
    38   34   35      ar
    39   35   36      ar
    40   36   37       1
    41   36   38      ar
    42    5   39       1
    43    8   40       1
    44   11   41       1
    45   12   42       1
    46   14   43       1
    47   14   44       1
    48   15   45       1
    49   16   46       1
    50   16   47       1
    51   16   48       1
    52   17   49       1
    53   17   50       1
    54   17   51       1
    55   18   52       1
    56   18   53       1
    57   19   54       1
    58   20   55       1
    59   21   56       1
    60   22   57       1
    61   22   58       1
    62   24   59       1
    63   25   60       1
    64   26   61       1
    65   27   62       1
    66   28   63       1
    67   29   64       1
    68   33   65       1
    69   34   66       1
    70   35   67       1
    71   37   68       1
    72   38   69       1
@<TRIPOS>SUBSTRUCTURE
     1 MZ8200      1 GROUP             4 A     MZ8     0 **** MZ8 A 200
