#    Name: 10411
#    Modification time : Tue Aug  8 23:07:52 2017

@<TRIPOS>MOLECULE
10411
   71     0    12     0     0
SMALL
NO_CHARGES


@<TRIPOS>ATOM
      1 N          11.3260    0.6330  -13.7870 N.am      1 SEL1        0.0000 
      2 N          12.9330   -0.8000  -12.8980 N.am      1 SEL1        0.0000 
      3 N          18.9170   -2.4330   -9.5470 N.am      1 SEL1        0.0000 
      4 N          17.9580   -3.0710   -7.2290 N.am      1 SEL1        0.0000 
      5 N          15.6070   -6.9930   -5.8440 N.am      1 SEL1        0.0000 
      6 N          14.1520   -5.3940   -0.0880 N.am      1 SEL1        0.0000 
      7 O           9.5330    1.3740  -12.5290 O.2       2 ALL2        0.0000 
      8 O          10.0040   -5.2210    1.3280 O.2       2 ALL2        0.0000 
      9 NZ         18.9170   -2.4330   -9.5470 N.4       3 LYL3        0.0000 
     10 NZ         17.9620   -4.8490   -9.1260 N.4       3 LYL3        0.0000 
     11 NZ         17.9580   -3.0710   -7.2290 N.4       3 LYL3        0.0000 
     12 NZ         13.9390   -5.0290   -5.5820 N.4       3 LYL3        0.0000 
     13 NZ         15.6070   -6.9930   -5.8440 N.4       3 LYL3        0.0000 
     14 CA         13.7330   -2.2870  -10.3010 C.3       4 GLL5        0.0000 
     15 CA         12.2390   -6.8810   -3.8650 C.3       4 GLL5        0.0000 
     16 CA         12.7510   -7.4170   -1.4710 C.3       4 GLL5        0.0000 
     17 CA         10.7190   -6.0040   -2.1220 C.3       4 GLL5        0.0000 
     18 CA         13.1000   -5.1080   -2.3310 C.3       4 GLL5        0.0000 
     19 CA         11.9640   -3.8570    1.8310 C.3       4 GLL5        0.0000 
     20 CA          6.1820   -6.2500    1.7460 C.3       4 GLL5        0.0000 
     21 CA          7.7660   -5.4680    2.1820 C.3       4 GLL5        0.0000 
     22 N          11.6710    3.8350  -14.9770 N.am      5 SEP1        0.0000 
     23 N          10.7990   -3.0430  -14.1170 N.am      5 SEP1        0.0000 
     24 N          17.3900   -0.8150  -11.8550 N.am      5 SEP1        0.0000 
     25 N          20.3120   -3.4340   -6.1740 N.am      5 SEP1        0.0000 
     26 N          17.6440   -5.5130   -5.3910 N.am      5 SEP1        0.0000 
     27 N          15.9660   -4.4770    2.0220 N.am      5 SEP1        0.0000 
     28 N          14.9710   -7.6760    2.1260 N.am      5 SEP1        0.0000 
     29 O           8.6730    2.5390  -15.0000 O.2       6 ALP2        0.0000 
     30 O          12.1440   -7.3380    2.1900 O.2       6 ALP2        0.0000 
     31 NZ         18.2330   -0.3060  -12.7600 N.4       7 LYP3        0.0000 
     32 NZ         17.6440   -5.5130   -5.3910 N.4       7 LYP3        0.0000 
     33 CA         14.8370    1.8920  -10.9180 C.3       8 GLP5        0.0000 
     34 CA          7.9810   -6.6900   -5.2330 C.3       8 GLP5        0.0000 
     35 CA         16.4440   -9.2750   -0.4750 C.3       8 GLP5        0.0000 
     36 CA         10.7070  -10.4540   -0.7690 C.3       8 GLP5        0.0000 
     37 CA          7.5720   -5.3150   -4.6020 C.3       8 GLP5        0.0000 
     38 CA          9.5690   -9.8480   -0.3100 C.3       8 GLP5        0.0000 
     39 CA         17.0890   -5.2580   -2.3480 C.3       8 GLP5        0.0000 
     40 CA         10.9390   -4.1280    5.6140 C.3       8 GLP5        0.0000 
     41 CA          4.7830   -6.8040   -1.4650 C.3       8 GLP5        0.0000 
     42 CA          2.6730   -5.2020    2.7210 C.3       8 GLP5        0.0000 
     43 CA          4.8270   -5.3600    5.7820 C.3       8 GLP5        0.0000 
     44 CA          6.7840   -2.3010    3.6580 C.3       8 GLP5        0.0000 
     45 N          11.4985    2.2340  -14.3820 N.am      9 SEC1        0.0000 
     46 N          11.8660   -1.9215  -13.5075 N.am      9 SEC1        0.0000 
     47 N          18.1535   -1.6240  -10.7010 N.am      9 SEC1        0.0000 
     48 N          19.1350   -3.2525   -6.7015 N.am      9 SEC1        0.0000 
     49 N          17.8010   -4.2920   -6.3100 N.am      9 SEC1        0.0000 
     50 N          16.6255   -6.2530   -5.6175 N.am      9 SEC1        0.0000 
     51 N          15.0590   -4.9355    0.9670 N.am      9 SEC1        0.0000 
     52 N          14.5615   -6.5350    1.0190 N.am      9 SEC1        0.0000 
     53 O           9.1030    1.9565  -13.7645 O.2      10 ALC2        0.0000 
     54 O          11.0740   -6.2795    1.7590 O.2      10 ALC2        0.0000 
     55 NZ         18.5750   -1.3695  -11.1535 N.4      11 LYC3        0.0000 
     56 NZ         17.8030   -5.1810   -7.2585 N.4      11 LYC3        0.0000 
     57 NZ         17.8010   -4.2920   -6.3100 N.4      11 LYC3        0.0000 
     58 NZ         15.7915   -5.2710   -5.4865 N.4      11 LYC3        0.0000 
     59 NZ         16.6255   -6.2530   -5.6175 N.4      11 LYC3        0.0000 
     60 CA         14.2850   -0.1975  -10.6095 C.3      12 GLC5        0.0000 
     61 CA         10.1100   -6.7855   -4.5490 C.3      12 GLC5        0.0000 
     62 CA         14.5975   -8.3460   -0.9730 C.3      12 GLC5        0.0000 
     63 CA         11.7290   -8.9355   -1.1200 C.3      12 GLC5        0.0000 
     64 CA          9.1455   -5.6595   -3.3620 C.3      12 GLC5        0.0000 
     65 CA         10.1440   -7.9260   -1.2160 C.3      12 GLC5        0.0000 
     66 CA         15.0945   -5.1830   -2.3395 C.3      12 GLC5        0.0000 
     67 CA         11.4515   -3.9925    3.7225 C.3      12 GLC5        0.0000 
     68 CA          5.4825   -6.5270    0.1405 C.3      12 GLC5        0.0000 
     69 CA          4.4275   -5.7260    2.2335 C.3      12 GLC5        0.0000 
     70 CA          5.5045   -5.8050    3.7640 C.3      12 GLC5        0.0000 
     71 CA          6.8790   -4.0800    2.8110 C.3      12 GLC5        0.0000 
@<TRIPOS>BOND
@<TRIPOS>SUBSTRUCTURE
     1 SEL1        1 GROUP        1 Z    SEL  0     ROOT SEL Z 0
     2 ALL2        7 GROUP        1 Z    ALL  0     **** ALL Z 1
     3 LYL3        9 GROUP        1 Z    LYL  0     **** LYL Z 2
     4 GLL5       14 GROUP        1 Z    GLL  0     **** GLL Z 4
     5 SEP1       22 GROUP        1 Z    SEP  0     **** SEP Z 7
     6 ALP2       29 GROUP        1 Z    ALP  0     **** ALP Z 8
     7 LYP3       31 GROUP        1 Z    LYP  0     **** LYP Z 9
     8 GLP5       33 GROUP        1 Z    GLP  0     **** GLP Z 11
     9 SEC1       45 GROUP        1 Z    SEC  0     **** SEC Z 14
    10 ALC2       53 GROUP        1 Z    ALC  0     **** ALC Z 15
    11 LYC3       55 GROUP        1 Z    LYC  0     **** LYC Z 16
    12 GLC5       60 GROUP        1 Z    GLC  0     **** GLC Z 18
@<TRIPOS>SET

