@<TRIPOS>MOLECULE
1xa4_COA_1_ligand
   80    82     1     0     0
SMALL
NO_CHARGES


@<TRIPOS>ATOM
     1 N1A         11.3260     0.6330   -13.7870 N.ar         1 COA701   0.0000
     2 C2A         12.4400    -0.0870   -13.9160 C.ar         1 COA701   0.0000
     3 N3A         12.9330    -0.8000   -12.8980 N.ar         1 COA701   0.0000
     4 C4A         12.2990    -0.8120   -11.7070 C.ar         1 COA701   0.0000
     5 C5A         11.1270    -0.0700   -11.5410 C.ar         1 COA701   0.0000
     6 C6A         10.6440     0.6660   -12.6310 C.ar         1 COA701   0.0000
     7 N6A          9.5330     1.3740   -12.5290 N.pl3        1 COA701   0.0000
     8 N7A         10.7240    -0.2500   -10.2790 N.2          1 COA701   0.0000
     9 C8A         11.5940    -1.0710    -9.6740 C.2          1 COA701   0.0000
    10 N9A         12.5540    -1.4220   -10.5400 N.pl3        1 COA701   0.0000
    11 C1B         13.7330    -2.2870   -10.3010 C.3          1 COA701   0.0000
    12 C2B         14.0310    -2.5290    -8.8190 C.3          1 COA701   0.0000
    13 O2B         14.4340    -1.3070    -8.1760 O.3          1 COA701   0.0000
    14 C3B         15.1910    -3.5140    -8.9900 C.3          1 COA701   0.0000
    15 O3B         16.3990    -2.8140    -9.3300 O.3          1 COA701   0.0000
    16 P3B         17.8360    -3.2630    -8.7090 P.3          1 COA701   0.0000
    17 O7A         18.9170    -2.4330    -9.5470 O.co2        1 COA701   0.0000
    18 O8A         17.9620    -4.8490    -9.1260 O.co2        1 COA701  -1.0000
    19 O9A         17.9580    -3.0710    -7.2290 O.co2        1 COA701  -1.0000
    20 C4B         14.7430    -4.3510   -10.1900 C.3          1 COA701   0.0000
    21 O4B         13.6160    -3.6230   -10.8030 O.3          1 COA701   0.0000
    22 C5B         14.2010    -5.6520    -9.6430 C.3          1 COA701   0.0000
    23 O5B         13.2580    -5.3610    -8.5980 O.3          1 COA701   0.0000
    24 P1A         12.3340    -6.5140    -7.9180 P.3          1 COA701   0.0000
    25 O1A         12.1120    -7.5930    -8.9320 O.co2        1 COA701   0.0000
    26 O2A         11.1740    -5.8640    -7.2500 O.co2        1 COA701  -1.0000
    27 O3A         13.2840    -7.2270    -6.7700 O.3          1 COA701   0.0000
    28 P2A         14.2070    -6.4970    -5.6590 P.3          1 COA701   0.0000
    29 O4A         13.9390    -5.0290    -5.5820 O.co2        1 COA701   0.0000
    30 O5A         15.6070    -6.9930    -5.8440 O.co2        1 COA701  -1.0000
    31 O6A         13.6150    -7.1180    -4.2450 O.3          1 COA701   0.0000
    32 CBP         12.1860    -6.3520    -2.4290 C.3          1 COA701   0.0000
    33 CCP         12.2390    -6.8810    -3.8650 C.3          1 COA701   0.0000
    34 CDP         12.7510    -7.4170    -1.4710 C.3          1 COA701   0.0000
    35 CEP         10.7190    -6.0040    -2.1220 C.3          1 COA701   0.0000
    36 CAP         13.1000    -5.1080    -2.3310 C.3          1 COA701   0.0000
    37 OAP         12.5410    -4.0270    -3.0880 O.3          1 COA701   0.0000
    38 C9P         13.3060    -4.6550    -0.8680 C.2          1 COA701   0.0000
    39 O9P         14.1520    -5.3940    -0.0880 O.2          1 COA701   0.0000
    40 N8P         12.6350    -3.5630    -0.5010 N.am         1 COA701   0.0000
    41 C7P         12.6810    -2.9300     0.8430 C.3          1 COA701   0.0000
    42 C6P         11.9640    -3.8570     1.8310 C.3          1 COA701   0.0000
    43 C5P         10.4930    -3.9940     1.3940 C.2          1 COA701   0.0000
    44 O5P          9.8400    -3.0020     1.1160 O.2          1 COA701   0.0000
    45 N4P         10.0040    -5.2210     1.3280 N.am         1 COA701   0.0000
    46 C3P          8.6090    -5.4380     0.9210 C.3          1 COA701   0.0000
    47 C2P          7.7660    -5.4680     2.1820 C.3          1 COA701   0.0000
    48 S1P          6.1820    -6.2500     1.7460 S.3          1 COA701   0.0000
    49 H2A         12.9181    -0.0942   -14.7943 H            1 COA701   0.0000
    50 H6A1         9.0303     1.3938   -11.6648 H            1 COA701   0.0000
    51 H6A2         9.1949     1.8900   -13.3161 H            1 COA701   0.0000
    52 H8A         11.5355    -1.3746    -8.7230 H            1 COA701   0.0000
    53 H1B         14.5329    -1.8581   -10.7207 H            1 COA701   0.0000
    54 H2B         13.2547    -2.9521    -8.3518 H            1 COA701   0.0000
    55 H7          14.1610    -1.3306    -7.2143 H            1 COA701   0.0000
    56 H3B         15.3134    -4.0799    -8.1747 H            1 COA701   0.0000
    57 H4B         15.4882    -4.5008   -10.8397 H            1 COA701   0.0000
    58 H5B1        14.9520    -6.1999    -9.2744 H            1 COA701   0.0000
    59 H5B2        13.7456    -6.1598   -10.3743 H            1 COA701   0.0000
    60 HCP1        11.7255    -7.7371    -3.9234 H            1 COA701   0.0000
    61 HCP2        11.8345    -6.2069    -4.4831 H            1 COA701   0.0000
    62 HDP1        12.7170    -7.0729    -0.5327 H            1 COA701   0.0000
    63 HDP2        12.2040    -8.2513    -1.5401 H            1 COA701   0.0000
    64 HDP3        13.6988    -7.6184    -1.7181 H            1 COA701   0.0000
    65 HEP1        10.6479    -5.6540    -1.1880 H            1 COA701   0.0000
    66 HEP2        10.4003    -5.3070    -2.7643 H            1 COA701   0.0000
    67 HEP3        10.1554    -6.8249    -2.2142 H            1 COA701   0.0000
    68 HAP         13.9920    -5.3389    -2.7197 H            1 COA701   0.0000
    69 H21         12.8853    -4.0640    -4.0261 H            1 COA701   0.0000
    70 H8P         12.0506    -3.1329    -1.1890 H            1 COA701   0.0000
    71 H7P1        12.2207    -2.0427     0.8157 H            1 COA701   0.0000
    72 H7P2        13.6318    -2.8037     1.1258 H            1 COA701   0.0000
    73 H6P1        12.0076    -3.4678     2.7511 H            1 COA701   0.0000
    74 H6P2        12.4017    -4.7561     1.8283 H            1 COA701   0.0000
    75 H4P         10.5848    -6.0026     1.5555 H            1 COA701   0.0000
    76 H3P1         8.5266    -6.3077     0.4343 H            1 COA701   0.0000
    77 H3P2         8.3070    -4.6932     0.3260 H            1 COA701   0.0000
    78 H2P1         7.6098    -4.5373     2.5127 H            1 COA701   0.0000
    79 H2P2         8.2280    -6.0006     2.8912 H            1 COA701   0.0000
    80 H1P          6.3269    -6.9064     1.0056 H            1 COA701   0.0000
@<TRIPOS>BOND
     1    1    2      ar
     2    1    6      ar
     3    2    3      ar
     4    3    4      ar
     5    4    5      ar
     6    4   10       1
     7    5    6      ar
     8    5    8       1
     9    6    7       1
    10    8    9       2
    11    9   10       1
    12   10   11       1
    13   11   12       1
    14   11   21       1
    15   12   13       1
    16   12   14       1
    17   14   15       1
    18   14   20       1
    19   15   16       1
    20   16   17      ar
    21   16   18      ar
    22   16   19      ar
    23   20   21       1
    24   20   22       1
    25   22   23       1
    26   23   24       1
    27   24   25      ar
    28   24   26      ar
    29   24   27       1
    30   27   28       1
    31   28   29      ar
    32   28   30      ar
    33   28   31       1
    34   31   33       1
    35   32   33       1
    36   32   34       1
    37   32   35       1
    38   32   36       1
    39   36   37       1
    40   36   38       1
    41   38   39       2
    42   38   40      am
    43   40   41       1
    44   41   42       1
    45   42   43       1
    46   43   44       2
    47   43   45      am
    48   45   46       1
    49   46   47       1
    50   47   48       1
    51    2   49       1
    52    7   50       1
    53    7   51       1
    54    9   52       1
    55   11   53       1
    56   12   54       1
    57   13   55       1
    58   14   56       1
    59   48   80       1
    60   47   79       1
    61   20   57       1
    62   22   58       1
    63   22   59       1
    64   47   78       1
    65   46   77       1
    66   33   60       1
    67   33   61       1
    68   34   62       1
    69   34   63       1
    70   34   64       1
    71   35   65       1
    72   35   66       1
    73   35   67       1
    74   36   68       1
    75   37   69       1
    76   40   70       1
    77   41   71       1
    78   41   72       1
    79   42   73       1
    80   42   74       1
    81   45   75       1
    82   46   76       1
@<TRIPOS>SUBSTRUCTURE
     1 COA701      1 GROUP             4 B     COA     0 **** COA B 701
