1xa4_COA_1_ligand
  -OEChem-08111718373D

 80 82  0     1  0  0  0  0  0999 V2000
   12.9181   -0.0942  -14.7943 H   0  0  0  0  0  0  0  0  0  0  0  0
   11.5355   -1.3746   -8.7230 H   0  0  0  0  0  0  0  0  0  0  0  0
   15.3134   -4.0799   -8.1747 H   0  0  0  0  0  0  0  0  0  0  0  0
   13.2547   -2.9521   -8.3518 H   0  0  0  0  0  0  0  0  0  0  0  0
   15.4882   -4.5008  -10.8397 H   0  0  0  0  0  0  0  0  0  0  0  0
   14.5329   -1.8581  -10.7207 H   0  0  0  0  0  0  0  0  0  0  0  0
   12.7170   -7.0729   -0.5327 H   0  0  0  0  0  0  0  0  0  0  0  0
   12.2040   -8.2513   -1.5401 H   0  0  0  0  0  0  0  0  0  0  0  0
   13.6988   -7.6184   -1.7181 H   0  0  0  0  0  0  0  0  0  0  0  0
   10.6479   -5.6540   -1.1880 H   0  0  0  0  0  0  0  0  0  0  0  0
   10.4003   -5.3070   -2.7643 H   0  0  0  0  0  0  0  0  0  0  0  0
   10.1554   -6.8249   -2.2142 H   0  0  0  0  0  0  0  0  0  0  0  0
   12.0076   -3.4678    2.7511 H   0  0  0  0  0  0  0  0  0  0  0  0
   12.4017   -4.7561    1.8283 H   0  0  0  0  0  0  0  0  0  0  0  0
   14.9520   -6.1999   -9.2744 H   0  0  0  0  0  0  0  0  0  0  0  0
   13.7456   -6.1598  -10.3743 H   0  0  0  0  0  0  0  0  0  0  0  0
   12.2207   -2.0427    0.8157 H   0  0  0  0  0  0  0  0  0  0  0  0
   13.6318   -2.8037    1.1258 H   0  0  0  0  0  0  0  0  0  0  0  0
    8.5266   -6.3077    0.4343 H   0  0  0  0  0  0  0  0  0  0  0  0
    8.3070   -4.6932    0.3260 H   0  0  0  0  0  0  0  0  0  0  0  0
   11.7255   -7.7371   -3.9234 H   0  0  0  0  0  0  0  0  0  0  0  0
   11.8345   -6.2069   -4.4831 H   0  0  0  0  0  0  0  0  0  0  0  0
    7.6098   -4.5373    2.5127 H   0  0  0  0  0  0  0  0  0  0  0  0
    8.2280   -6.0006    2.8912 H   0  0  0  0  0  0  0  0  0  0  0  0
   13.9920   -5.3389   -2.7197 H   0  0  0  0  0  0  0  0  0  0  0  0
    9.0303    1.3938  -11.6648 H   0  0  0  0  0  0  0  0  0  0  0  0
    9.1949    1.8900  -13.3161 H   0  0  0  0  0  0  0  0  0  0  0  0
   10.5848   -6.0026    1.5555 H   0  0  0  0  0  0  0  0  0  0  0  0
   12.0506   -3.1329   -1.1890 H   0  0  0  0  0  0  0  0  0  0  0  0
   14.1610   -1.3306   -7.2143 H   0  0  0  0  0  0  0  0  0  0  0  0
   12.8853   -4.0640   -4.0261 H   0  0  0  0  0  0  0  0  0  0  0  0
    6.3269   -6.9064    1.0056 H   0  0  0  0  0  0  0  0  0  0  0  0
   12.4400   -0.0870  -13.9160 C   0  0  0  0  0  0  0  0  0  0  0  0
   11.5940   -1.0710   -9.6740 C   0  0  0  0  0  0  0  0  0  0  0  0
   11.1270   -0.0700  -11.5410 C   0  0  0  0  0  0  0  0  0  0  0  0
   12.2990   -0.8120  -11.7070 C   0  0  0  0  0  0  0  0  0  0  0  0
   10.6440    0.6660  -12.6310 C   0  0  0  0  0  0  0  0  0  0  0  0
   10.4930   -3.9940    1.3940 C   0  0  0  0  0  0  0  0  0  0  0  0
   13.3060   -4.6550   -0.8680 C   0  0  0  0  0  0  0  0  0  0  0  0
   15.1910   -3.5140   -8.9900 C   0  0  1  0  0  0  0  0  0  0  0  0
   14.0310   -2.5290   -8.8190 C   0  0  2  0  0  0  0  0  0  0  0  0
   14.7430   -4.3510  -10.1900 C   0  0  1  0  0  0  0  0  0  0  0  0
   13.7330   -2.2870  -10.3010 C   0  0  2  0  0  0  0  0  0  0  0  0
   12.7510   -7.4170   -1.4710 C   0  0  0  0  0  0  0  0  0  0  0  0
   10.7190   -6.0040   -2.1220 C   0  0  0  0  0  0  0  0  0  0  0  0
   11.9640   -3.8570    1.8310 C   0  0  1  0  0  0  0  0  0  0  0  0
   14.2010   -5.6520   -9.6430 C   0  0  2  0  0  0  0  0  0  0  0  0
   12.6810   -2.9300    0.8430 C   0  0  1  0  0  0  0  0  0  0  0  0
    8.6090   -5.4380    0.9210 C   0  0  1  0  0  0  0  0  0  0  0  0
   12.2390   -6.8810   -3.8650 C   0  0  1  0  0  0  0  0  0  0  0  0
    7.7660   -5.4680    2.1820 C   0  0  2  0  0  0  0  0  0  0  0  0
   13.1000   -5.1080   -2.3310 C   0  0  1  0  0  0  0  0  0  0  0  0
   12.1860   -6.3520   -2.4290 C   0  0  2  0  0  0  0  0  0  0  0  0
   12.9330   -0.8000  -12.8980 N   0  0  0  0  0  0  0  0  0  0  0  0
   11.3260    0.6330  -13.7870 N   0  0  0  0  0  0  0  0  0  0  0  0
   10.7240   -0.2500  -10.2790 N   0  0  0  0  0  0  0  0  0  0  0  0
   12.5540   -1.4220  -10.5400 N   0  0  0  0  0  0  0  0  0  0  0  0
    9.5330    1.3740  -12.5290 N   0  0  0  0  0  0  0  0  0  0  0  0
   10.0040   -5.2210    1.3280 N   0  0  0  0  0  0  0  0  0  0  0  0
   12.6350   -3.5630   -0.5010 N   0  0  0  0  0  0  0  0  0  0  0  0
   17.9620   -4.8490   -9.1260 O   0  5  0  0  0  0  0  0  0  0  0  0
   17.9580   -3.0710   -7.2290 O   0  5  0  0  0  0  0  0  0  0  0  0
   11.1740   -5.8640   -7.2500 O   0  5  0  0  0  0  0  0  0  0  0  0
   15.6070   -6.9930   -5.8440 O   0  5  0  0  0  0  0  0  0  0  0  0
    9.8400   -3.0020    1.1160 O   0  0  0  0  0  0  0  0  0  0  0  0
   14.1520   -5.3940   -0.0880 O   0  0  0  0  0  0  0  0  0  0  0  0
   18.9170   -2.4330   -9.5470 O   0  0  0  0  0  0  0  0  0  0  0  0
   12.1120   -7.5930   -8.9320 O   0  0  0  0  0  0  0  0  0  0  0  0
   13.9390   -5.0290   -5.5820 O   0  0  0  0  0  0  0  0  0  0  0  0
   13.6160   -3.6230  -10.8030 O   0  0  0  0  0  0  0  0  0  0  0  0
   14.4340   -1.3070   -8.1760 O   0  0  0  0  0  0  0  0  0  0  0  0
   12.5410   -4.0270   -3.0880 O   0  0  0  0  0  0  0  0  0  0  0  0
   16.3990   -2.8140   -9.3300 O   0  0  0  0  0  0  0  0  0  0  0  0
   13.2580   -5.3610   -8.5980 O   0  0  0  0  0  0  0  0  0  0  0  0
   13.6150   -7.1180   -4.2450 O   0  0  0  0  0  0  0  0  0  0  0  0
   13.2840   -7.2270   -6.7700 O   0  0  0  0  0  0  0  0  0  0  0  0
   17.8360   -3.2630   -8.7090 P   0  0  0  0  0  0  0  0  0  0  0  0
   12.3340   -6.5140   -7.9180 P   0  0  1  0  0  0  0  0  0  0  0  0
   14.2070   -6.4970   -5.6590 P   0  0  2  0  0  0  0  0  0  0  0  0
    6.1820   -6.2500    1.7460 S   0  0  0  0  0  0  0  0  0  0  0  0
  1 33  1  0  0  0  0
  2 34  1  0  0  0  0
  3 40  1  0  0  0  0
  4 41  1  0  0  0  0
  5 42  1  0  0  0  0
  6 43  1  0  0  0  0
  7 44  1  0  0  0  0
  8 44  1  0  0  0  0
  9 44  1  0  0  0  0
 10 45  1  0  0  0  0
 11 45  1  0  0  0  0
 12 45  1  0  0  0  0
 13 46  1  0  0  0  0
 14 46  1  0  0  0  0
 15 47  1  0  0  0  0
 16 47  1  0  0  0  0
 17 48  1  0  0  0  0
 18 48  1  0  0  0  0
 19 49  1  0  0  0  0
 20 49  1  0  0  0  0
 21 50  1  0  0  0  0
 22 50  1  0  0  0  0
 23 51  1  0  0  0  0
 24 51  1  0  0  0  0
 25 52  1  0  0  0  0
 26 58  1  0  0  0  0
 27 58  1  0  0  0  0
 28 59  1  0  0  0  0
 29 60  1  0  0  0  0
 30 71  1  0  0  0  0
 31 72  1  0  0  0  0
 32 80  1  0  0  0  0
 33 54  1  0  0  0  0
 33 55  2  0  0  0  0
 34 56  2  0  0  0  0
 34 57  1  0  0  0  0
 35 36  1  0  0  0  0
 35 37  2  0  0  0  0
 35 56  1  0  0  0  0
 36 54  2  0  0  0  0
 36 57  1  0  0  0  0
 37 55  1  0  0  0  0
 37 58  1  0  0  0  0
 38 46  1  0  0  0  0
 38 59  1  0  0  0  0
 38 65  2  0  0  0  0
 39 52  1  0  0  0  0
 39 60  1  0  0  0  0
 39 66  2  0  0  0  0
 40 41  1  0  0  0  0
 40 42  1  0  0  0  0
 40 73  1  0  0  0  0
 41 43  1  0  0  0  0
 41 71  1  0  0  0  0
 42 47  1  0  0  0  0
 42 70  1  0  0  0  0
 43 57  1  0  0  0  0
 43 70  1  0  0  0  0
 44 53  1  0  0  0  0
 45 53  1  0  0  0  0
 46 48  1  0  0  0  0
 47 74  1  0  0  0  0
 48 60  1  0  0  0  0
 49 51  1  0  0  0  0
 49 59  1  0  0  0  0
 50 53  1  0  0  0  0
 50 75  1  0  0  0  0
 51 80  1  0  0  0  0
 52 53  1  0  0  0  0
 52 72  1  0  0  0  0
 61 77  1  0  0  0  0
 62 77  1  0  0  0  0
 63 78  1  0  0  0  0
 64 79  1  0  0  0  0
 67 77  2  0  0  0  0
 68 78  2  0  0  0  0
 69 79  2  0  0  0  0
 73 77  1  0  0  0  0
 74 78  1  0  0  0  0
 75 79  1  0  0  0  0
 76 78  1  0  0  0  0
 76 79  1  0  0  0  0
M  CHG  4  61  -1  62  -1  63  -1  64  -1
M  END
> <scpdb_id>
1xa4_1

$$$$
