#    Name: 21536
#    Modification time : Tue Aug  8 19:21:26 2017

@<TRIPOS>MOLECULE
21536
   78     0     9     0     0
SMALL
NO_CHARGES


@<TRIPOS>ATOM
      1 N          -1.5330   -3.8040   23.0350 N.am      1 SEL1        0.0000 
      2 N          -1.8140   -4.1260   21.8200 N.am      1 SEL1        0.0000 
      3 N          -0.2930    2.0510   15.4610 N.am      1 SEL1        0.0000 
      4 O          -2.3170    3.1240   15.8490 O.2       2 ALL2        0.0000 
      5 O          -0.9340    3.7040   14.1640 O.2       2 ALL2        0.0000 
      6 CA         -2.6770   -1.1470   25.0570 C.3       3 GLL5        0.0000 
      7 CA         -2.9340    1.2000   19.8170 C.3       3 GLL5        0.0000 
      8 CA         -5.3060    0.2330   18.5950 C.3       3 GLL5        0.0000 
      9 CA         -4.6510    1.4270   16.1550 C.3       3 GLL5        0.0000 
     10 CA         -3.8050    1.5850   17.2370 C.3       3 GLL5        0.0000 
     11 CA         -0.5200    8.0700   11.4390 C.3       3 GLL5        0.0000 
     12 CA         -0.9460    8.6100   12.6350 C.3       3 GLL5        0.0000 
     13 CA          2.7650    1.4970   10.4460 C.3       3 GLL5        0.0000 
     14 CA          4.2970    3.4070   10.9790 C.3       3 GLL5        0.0000 
     15 CA          3.9230    1.5920   12.5560 C.3       3 GLL5        0.0000 
     16 CA         -1.3830   -1.7130   24.5010 C.3       3 GLL5        0.0000 
     17 CA         -5.8020    0.6300   16.3000 C.3       3 GLL5        0.0000 
     18 CA         -0.3960    6.5720   13.7820 C.3       3 GLL5        0.0000 
     19 CA         -0.0110    6.7690   11.4050 C.3       3 GLL5        0.0000 
     20 CA          0.0260    5.9980   12.6040 C.3       3 GLL5        0.0000 
     21 CA         -6.1450    0.0570   17.5230 C.3       3 GLL5        0.0000 
     22 N          -2.2520   -6.8920   22.3070 N.am      4 SEP1        0.0000 
     23 N          -1.3800   -6.4100   24.8570 N.am      4 SEP1        0.0000 
     24 N           2.4390    2.8730   16.4060 N.am      4 SEP1        0.0000 
     25 O          -3.4770    4.9620   14.1160 O.2       5 ALP2        0.0000 
     26 CA         -6.0540    0.1470   25.6140 C.3       6 GLP5        0.0000 
     27 CA          0.7860   -0.7990   19.2790 C.3       6 GLP5        0.0000 
     28 CA         -2.4350    3.6830   23.0290 C.3       6 GLP5        0.0000 
     29 CA         -6.3630    1.1690   22.2230 C.3       6 GLP5        0.0000 
     30 CA         -3.9250    1.7360   12.1670 C.3       6 GLP5        0.0000 
     31 CA         -5.7660    5.0620   17.1570 C.3       6 GLP5        0.0000 
     32 CA          0.7200    9.9300    7.9650 C.3       6 GLP5        0.0000 
     33 CA         -2.6150   12.1430   11.9260 C.3       6 GLP5        0.0000 
     34 CA          1.5470   -1.3490    8.2030 C.3       6 GLP5        0.0000 
     35 CA          3.6460   -2.7170   11.1260 C.3       6 GLP5        0.0000 
     36 CA          6.3700    4.0480    7.1150 C.3       6 GLP5        0.0000 
     37 CA          6.7800   -0.2860   14.6920 C.3       6 GLP5        0.0000 
     38 CA         -0.9540    1.8830   23.5630 C.3       6 GLP5        0.0000 
     39 CA         -5.6910    3.4780   21.5760 C.3       6 GLP5        0.0000 
     40 CA         -2.0120   -0.9420   15.5570 C.3       6 GLP5        0.0000 
     41 CA         -6.0660   -2.8050   20.7290 C.3       6 GLP5        0.0000 
     42 CA         -8.2920    1.7570   13.8360 C.3       6 GLP5        0.0000 
     43 CA          2.8880    5.1530   15.5060 C.3       6 GLP5        0.0000 
     44 CA          1.2880    5.5890    8.1700 C.3       6 GLP5        0.0000 
     45 CA         -3.7320    6.6150   10.8680 C.3       6 GLP5        0.0000 
     46 CA         -3.7390    5.4250   11.8130 C.3       6 GLP5        0.0000 
     47 CA         -7.4190    3.3000   17.8850 C.3       6 GLP5        0.0000 
     48 CA         -4.6310   -3.2490   17.1740 C.3       6 GLP5        0.0000 
     49 N          -1.8925   -5.3480   22.6710 N.am      7 SEC1        0.0000 
     50 N          -1.4565   -5.1070   23.9460 N.am      7 SEC1        0.0000 
     51 N          -2.0330   -5.5090   22.0635 N.am      7 SEC1        0.0000 
     52 N           1.0730    2.4620   15.9335 N.am      7 SEC1        0.0000 
     53 O          -2.8970    4.0430   14.9825 O.2       8 ALC2        0.0000 
     54 O          -2.2055    4.3330   14.1400 O.2       8 ALC2        0.0000 
     55 CA         -4.3655   -0.5000   25.3355 C.3       9 GLC5        0.0000 
     56 CA         -1.0740    0.2005   19.5480 C.3       9 GLC5        0.0000 
     57 CA         -2.6845    2.4415   21.4230 C.3       9 GLC5        0.0000 
     58 CA         -5.8345    0.7010   20.4090 C.3       9 GLC5        0.0000 
     59 CA         -4.2880    1.5815   14.1610 C.3       9 GLC5        0.0000 
     60 CA         -4.7855    3.3235   17.1970 C.3       9 GLC5        0.0000 
     61 CA          0.1000    9.0000    9.7020 C.3       9 GLC5        0.0000 
     62 CA         -1.7805   10.3765   12.2805 C.3       9 GLC5        0.0000 
     63 CA          2.1560    0.0740    9.3245 C.3       9 GLC5        0.0000 
     64 CA          3.2055   -0.6100   10.7860 C.3       9 GLC5        0.0000 
     65 CA          5.3335    3.7275    9.0470 C.3       9 GLC5        0.0000 
     66 CA          5.3515    0.6530   13.6240 C.3       9 GLC5        0.0000 
     67 CA         -1.4920    0.2265   24.1710 C.3       9 GLC5        0.0000 
     68 CA         -4.6005    2.2862   20.3605 C.3       9 GLC5        0.0000 
     69 CA         -2.9788    0.1725   16.7060 C.3       9 GLC5        0.0000 
     70 CA         -5.8957   -1.3300   19.3940 C.3       9 GLC5        0.0000 
     71 CA         -3.6193    0.0433   15.8923 C.3       9 GLC5        0.0000 
     72 CA         -6.7592    1.3927   15.0318 C.3       9 GLC5        0.0000 
     73 CA          1.3515    5.7190   14.3495 C.3       9 GLC5        0.0000 
     74 CA          0.5112    6.5043    9.7960 C.3       9 GLC5        0.0000 
     75 CA         -2.1689    7.3149   11.4482 C.3       9 GLC5        0.0000 
     76 CA         -2.1442    6.2535   12.6595 C.3       9 GLC5        0.0000 
     77 CA         -6.3927    1.9548   17.5829 C.3       9 GLC5        0.0000 
     78 CA         -5.1640   -1.4551   17.3220 C.3       9 GLC5        0.0000 
@<TRIPOS>BOND
@<TRIPOS>SUBSTRUCTURE
     1 SEL1        1 GROUP        1 Z    SEL  0     ROOT SEL Z 0
     2 ALL2        4 GROUP        1 Z    ALL  0     **** ALL Z 1
     3 GLL5        6 GROUP        1 Z    GLL  0     **** GLL Z 4
     4 SEP1       22 GROUP        1 Z    SEP  0     **** SEP Z 7
     5 ALP2       25 GROUP        1 Z    ALP  0     **** ALP Z 8
     6 GLP5       26 GROUP        1 Z    GLP  0     **** GLP Z 11
     7 SEC1       49 GROUP        1 Z    SEC  0     **** SEC Z 14
     8 ALC2       53 GROUP        1 Z    ALC  0     **** ALC Z 15
     9 GLC5       55 GROUP        1 Z    GLC  0     **** GLC Z 18
@<TRIPOS>SET

