2yiw_YIW_1_ligand
  -OEChem-08111718373D

 72 76  0     1  0  0  0  0  0999 V2000
   -1.2863    9.5502   12.6516 H   0  0  0  0  0  0  0  0  0  0  0  0
   -6.3882    0.4710   15.5056 H   0  0  0  0  0  0  0  0  0  0  0  0
   -0.5754    8.6085   10.5982 H   0  0  0  0  0  0  0  0  0  0  0  0
   -1.2507    8.2731   14.6742 H   0  0  0  0  0  0  0  0  0  0  0  0
   -6.9876   -0.4731   17.6180 H   0  0  0  0  0  0  0  0  0  0  0  0
   -4.4483    1.8721   15.2828 H   0  0  0  0  0  0  0  0  0  0  0  0
    0.3247    6.3816   10.5464 H   0  0  0  0  0  0  0  0  0  0  0  0
   -0.3328    6.0475   14.6310 H   0  0  0  0  0  0  0  0  0  0  0  0
   -5.5463   -0.1713   19.4775 H   0  0  0  0  0  0  0  0  0  0  0  0
   -2.9976   -1.3412   18.4484 H   0  0  0  0  0  0  0  0  0  0  0  0
   -2.5552   -3.6038   19.1561 H   0  0  0  0  0  0  0  0  0  0  0  0
    1.0694    1.7012   13.4398 H   0  0  0  0  0  0  0  0  0  0  0  0
   -2.2300    0.0863   22.2240 H   0  0  0  0  0  0  0  0  0  0  0  0
   -3.0746   -0.5118   24.3949 H   0  0  0  0  0  0  0  0  0  0  0  0
   -3.3198   -1.8931   25.2306 H   0  0  0  0  0  0  0  0  0  0  0  0
   -2.4891   -0.6632   25.9118 H   0  0  0  0  0  0  0  0  0  0  0  0
   -0.0760   -3.0882   25.3903 H   0  0  0  0  0  0  0  0  0  0  0  0
   -0.8071   -2.1115   26.4758 H   0  0  0  0  0  0  0  0  0  0  0  0
   -1.6378   -3.3414   25.7946 H   0  0  0  0  0  0  0  0  0  0  0  0
    3.5474    1.0273   10.0371 H   0  0  0  0  0  0  0  0  0  0  0  0
    2.1388    0.8228   10.8376 H   0  0  0  0  0  0  0  0  0  0  0  0
    2.2889    2.0254    9.7431 H   0  0  0  0  0  0  0  0  0  0  0  0
    5.0591    2.8875   10.5926 H   0  0  0  0  0  0  0  0  0  0  0  0
    3.8779    3.9660   10.2635 H   0  0  0  0  0  0  0  0  0  0  0  0
    4.6345    3.9997   11.7103 H   0  0  0  0  0  0  0  0  0  0  0  0
    4.7090    1.1350   12.1396 H   0  0  0  0  0  0  0  0  0  0  0  0
    4.2334    2.1625   13.3164 H   0  0  0  0  0  0  0  0  0  0  0  0
    3.2796    0.9057   12.8951 H   0  0  0  0  0  0  0  0  0  0  0  0
   -1.7898    1.6623   17.1492 H   0  0  0  0  0  0  0  0  0  0  0  0
   -2.4702    2.9639   17.8629 H   0  0  0  0  0  0  0  0  0  0  0  0
   -0.7113   -0.9887   24.3452 H   0  0  0  0  0  0  0  0  0  0  0  0
   -1.5818    4.4467   13.9946 H   0  0  0  0  0  0  0  0  0  0  0  0
   -2.9841    3.8083   15.5545 H   0  0  0  0  0  0  0  0  0  0  0  0
   -0.9460    8.6100   12.6350 C   0  0  0  0  0  0  0  0  0  0  0  0
   -5.8020    0.6300   16.3000 C   0  0  0  0  0  0  0  0  0  0  0  0
   -0.5200    8.0700   11.4390 C   0  0  0  0  0  0  0  0  0  0  0  0
   -0.9140    7.8790   13.8190 C   0  0  0  0  0  0  0  0  0  0  0  0
   -6.1450    0.0570   17.5230 C   0  0  0  0  0  0  0  0  0  0  0  0
   -4.6510    1.4270   16.1550 C   0  0  0  0  0  0  0  0  0  0  0  0
   -0.0110    6.7690   11.4050 C   0  0  0  0  0  0  0  0  0  0  0  0
   -0.3960    6.5720   13.7820 C   0  0  0  0  0  0  0  0  0  0  0  0
   -5.3060    0.2330   18.5950 C   0  0  0  0  0  0  0  0  0  0  0  0
   -2.7370   -1.5210   19.3970 C   0  0  0  0  0  0  0  0  0  0  0  0
   -2.4840   -2.8420   19.8000 C   0  0  0  0  0  0  0  0  0  0  0  0
    1.0930    2.6260   13.0600 C   0  0  0  0  0  0  0  0  0  0  0  0
   -2.2920   -0.6770   21.5810 C   0  0  0  0  0  0  0  0  0  0  0  0
   -3.8050    1.5850   17.2370 C   0  0  0  0  0  0  0  0  0  0  0  0
    0.0260    5.9980   12.6040 C   0  0  0  0  0  0  0  0  0  0  0  0
   -2.6330   -0.4500   20.2920 C   0  0  0  0  0  0  0  0  0  0  0  0
   -4.0860    0.9890   18.4730 C   0  0  0  0  0  0  0  0  0  0  0  0
    2.0640    3.1380   12.1530 C   0  0  0  0  0  0  0  0  0  0  0  0
   -2.1250   -3.0540   21.1500 C   0  0  0  0  0  0  0  0  0  0  0  0
    0.1940    3.6330   13.3190 C   0  0  0  0  0  0  0  0  0  0  0  0
   -1.6540   -2.4960   23.2180 C   0  0  0  0  0  0  0  0  0  0  0  0
   -1.2080    2.8960   15.1390 C   0  0  0  0  0  0  0  0  0  0  0  0
   -2.6770   -1.1470   25.0570 C   0  0  0  0  0  0  0  0  0  0  0  0
   -0.9370   -2.6450   25.6400 C   0  0  0  0  0  0  0  0  0  0  0  0
    2.7650    1.4970   10.4460 C   0  0  0  0  0  0  0  0  0  0  0  0
    4.2970    3.4070   10.9790 C   0  0  0  0  0  0  0  0  0  0  0  0
    3.9230    1.5920   12.5560 C   0  0  0  0  0  0  0  0  0  0  0  0
   -2.5320    2.3300   17.0920 C   0  0  2  0  0  0  0  0  0  0  0  0
   -1.3830   -1.7130   24.5010 C   0  0  1  0  0  0  0  0  0  0  0  0
    3.2540    2.4380   11.5470 C   0  0  1  0  0  0  0  0  0  0  0  0
    1.7550    4.3570   11.9740 N   0  0  0  0  0  0  0  0  0  0  0  0
   -1.8140   -4.1260   21.8200 N   0  0  0  0  0  0  0  0  0  0  0  0
   -1.5330   -3.8040   23.0350 N   0  0  0  0  0  0  0  0  0  0  0  0
   -2.0250   -1.9860   22.0160 N   0  0  0  0  0  0  0  0  0  0  0  0
    0.5570    4.6740   12.5920 N   0  0  0  0  0  0  0  0  0  0  0  0
   -0.9340    3.7040   14.1640 N   0  0  0  0  0  0  0  0  0  0  0  0
   -2.3170    3.1240   15.8490 N   0  0  0  0  0  0  0  0  0  0  0  0
   -0.2930    2.0510   15.4610 O   0  0  0  0  0  0  0  0  0  0  0  0
   -2.9340    1.2000   19.8170 S   0  0  0  0  0  0  0  0  0  0  0  0
  1 34  1  0  0  0  0
  2 35  1  0  0  0  0
  3 36  1  0  0  0  0
  4 37  1  0  0  0  0
  5 38  1  0  0  0  0
  6 39  1  0  0  0  0
  7 40  1  0  0  0  0
  8 41  1  0  0  0  0
  9 42  1  0  0  0  0
 10 43  1  0  0  0  0
 11 44  1  0  0  0  0
 12 45  1  0  0  0  0
 13 46  1  0  0  0  0
 14 56  1  0  0  0  0
 15 56  1  0  0  0  0
 16 56  1  0  0  0  0
 17 57  1  0  0  0  0
 18 57  1  0  0  0  0
 19 57  1  0  0  0  0
 20 58  1  0  0  0  0
 21 58  1  0  0  0  0
 22 58  1  0  0  0  0
 23 59  1  0  0  0  0
 24 59  1  0  0  0  0
 25 59  1  0  0  0  0
 26 60  1  0  0  0  0
 27 60  1  0  0  0  0
 28 60  1  0  0  0  0
 29 61  1  0  0  0  0
 30 61  1  0  0  0  0
 31 62  1  0  0  0  0
 32 69  1  0  0  0  0
 33 70  1  0  0  0  0
 34 36  2  0  0  0  0
 34 37  1  0  0  0  0
 35 38  2  0  0  0  0
 35 39  1  0  0  0  0
 36 40  1  0  0  0  0
 37 41  2  0  0  0  0
 38 42  1  0  0  0  0
 39 47  2  0  0  0  0
 40 48  2  0  0  0  0
 41 48  1  0  0  0  0
 42 50  2  0  0  0  0
 43 44  2  0  0  0  0
 43 49  1  0  0  0  0
 44 52  1  0  0  0  0
 45 51  1  0  0  0  0
 45 53  2  0  0  0  0
 46 49  2  0  0  0  0
 46 67  1  0  0  0  0
 47 50  1  0  0  0  0
 47 61  1  0  0  0  0
 48 68  1  0  0  0  0
 49 72  1  0  0  0  0
 50 72  1  0  0  0  0
 51 63  1  0  0  0  0
 51 64  2  0  0  0  0
 52 65  2  0  0  0  0
 52 67  1  0  0  0  0
 53 68  1  0  0  0  0
 53 69  1  0  0  0  0
 54 62  1  0  0  0  0
 54 66  2  0  0  0  0
 54 67  1  0  0  0  0
 55 69  1  0  0  0  0
 55 70  1  0  0  0  0
 55 71  2  0  0  0  0
 56 62  1  0  0  0  0
 57 62  1  0  0  0  0
 58 63  1  0  0  0  0
 59 63  1  0  0  0  0
 60 63  1  0  0  0  0
 61 70  1  0  0  0  0
 64 68  1  0  0  0  0
 65 66  1  0  0  0  0
M  END
> <scpdb_id>
2yiw_1

$$$$
