@<TRIPOS>MOLECULE
2yiw_YIW_1_ligand
   72    76     1     0     0
SMALL
NO_CHARGES


@<TRIPOS>ATOM
     1 C1          -2.6770    -1.1470    25.0570 C.3          1 YIW1353   0.0000
     2 C2          -1.3830    -1.7130    24.5010 C.3          1 YIW1353   0.0000
     3 C3          -0.9370    -2.6450    25.6400 C.3          1 YIW1353   0.0000
     4 C4          -1.6540    -2.4960    23.2180 C.2          1 YIW1353   0.0000
     5 N5          -1.5330    -3.8040    23.0350 N.2          1 YIW1353   0.0000
     6 N6          -1.8140    -4.1260    21.8200 N.2          1 YIW1353   0.0000
     7 C7          -2.1250    -3.0540    21.1500 C.2          1 YIW1353   0.0000
     8 C8          -2.4840    -2.8420    19.8000 C.2          1 YIW1353   0.0000
     9 C9          -2.7370    -1.5210    19.3970 C.2          1 YIW1353   0.0000
    10 C10         -2.6330    -0.4500    20.2920 C.2          1 YIW1353   0.0000
    11 S11         -2.9340     1.2000    19.8170 S.3          1 YIW1353   0.0000
    12 C12         -4.0860     0.9890    18.4730 C.ar         1 YIW1353   0.0000
    13 C13         -5.3060     0.2330    18.5950 C.ar         1 YIW1353   0.0000
    14 C14         -6.1450     0.0570    17.5230 C.ar         1 YIW1353   0.0000
    15 C15         -5.8020     0.6300    16.3000 C.ar         1 YIW1353   0.0000
    16 C16         -4.6510     1.4270    16.1550 C.ar         1 YIW1353   0.0000
    17 C17         -3.8050     1.5850    17.2370 C.ar         1 YIW1353   0.0000
    18 C18         -2.5320     2.3300    17.0920 C.3          1 YIW1353   0.0000
    19 N19         -2.3170     3.1240    15.8490 N.am         1 YIW1353   0.0000
    20 C20         -1.2080     2.8960    15.1390 C.2          1 YIW1353   0.0000
    21 O21         -0.2930     2.0510    15.4610 O.2          1 YIW1353   0.0000
    22 N22         -0.9340     3.7040    14.1640 N.am         1 YIW1353   0.0000
    23 C23          0.1940     3.6330    13.3190 C.2          1 YIW1353   0.0000
    24 C24          1.0930     2.6260    13.0600 C.2          1 YIW1353   0.0000
    25 C25          2.0640     3.1380    12.1530 C.2          1 YIW1353   0.0000
    26 N26          1.7550     4.3570    11.9740 N.2          1 YIW1353   0.0000
    27 N27          0.5570     4.6740    12.5920 N.pl3        1 YIW1353   0.0000
    28 C28          0.0260     5.9980    12.6040 C.ar         1 YIW1353   0.0000
    29 C29         -0.0110     6.7690    11.4050 C.ar         1 YIW1353   0.0000
    30 C30         -0.5200     8.0700    11.4390 C.ar         1 YIW1353   0.0000
    31 C31         -0.9460     8.6100    12.6350 C.ar         1 YIW1353   0.0000
    32 C32         -0.9140     7.8790    13.8190 C.ar         1 YIW1353   0.0000
    33 C33         -0.3960     6.5720    13.7820 C.ar         1 YIW1353   0.0000
    34 C34          3.2540     2.4380    11.5470 C.3          1 YIW1353   0.0000
    35 C35          2.7650     1.4970    10.4460 C.3          1 YIW1353   0.0000
    36 C36          4.2970     3.4070    10.9790 C.3          1 YIW1353   0.0000
    37 C37          3.9230     1.5920    12.5560 C.3          1 YIW1353   0.0000
    38 C38         -2.2920    -0.6770    21.5810 C.2          1 YIW1353   0.0000
    39 N39         -2.0250    -1.9860    22.0160 N.pl3        1 YIW1353   0.0000
    40 H1          -3.0746    -0.5118    24.3949 H            1 YIW1353   0.0000
    41 H2          -3.3198    -1.8931    25.2306 H            1 YIW1353   0.0000
    42 H3          -2.4891    -0.6632    25.9118 H            1 YIW1353   0.0000
    43 H4          -0.7113    -0.9887    24.3452 H            1 YIW1353   0.0000
    44 H5          -0.0760    -3.0882    25.3903 H            1 YIW1353   0.0000
    45 H6          -0.8071    -2.1115    26.4758 H            1 YIW1353   0.0000
    46 H7          -1.6378    -3.3414    25.7946 H            1 YIW1353   0.0000
    47 H8          -2.5552    -3.6038    19.1561 H            1 YIW1353   0.0000
    48 H9          -2.9976    -1.3412    18.4484 H            1 YIW1353   0.0000
    49 H10         -5.5463    -0.1713    19.4775 H            1 YIW1353   0.0000
    50 H11         -6.9876    -0.4731    17.6180 H            1 YIW1353   0.0000
    51 H12         -6.3882     0.4710    15.5056 H            1 YIW1353   0.0000
    52 H13         -4.4483     1.8721    15.2828 H            1 YIW1353   0.0000
    53 H14         -1.7898     1.6623    17.1492 H            1 YIW1353   0.0000
    54 H15         -2.4702     2.9639    17.8629 H            1 YIW1353   0.0000
    55 H16         -2.9841     3.8083    15.5545 H            1 YIW1353   0.0000
    56 H17         -1.5818     4.4467    13.9946 H            1 YIW1353   0.0000
    57 H18          1.0694     1.7012    13.4398 H            1 YIW1353   0.0000
    58 H19          0.3247     6.3816    10.5464 H            1 YIW1353   0.0000
    59 H20         -0.5754     8.6085    10.5982 H            1 YIW1353   0.0000
    60 H21         -1.2863     9.5502    12.6516 H            1 YIW1353   0.0000
    61 H22         -1.2507     8.2731    14.6742 H            1 YIW1353   0.0000
    62 H23         -0.3328     6.0475    14.6310 H            1 YIW1353   0.0000
    63 H24          3.5474     1.0273    10.0371 H            1 YIW1353   0.0000
    64 H25          2.1388     0.8228    10.8376 H            1 YIW1353   0.0000
    65 H26          2.2889     2.0254     9.7431 H            1 YIW1353   0.0000
    66 H27          5.0591     2.8875    10.5926 H            1 YIW1353   0.0000
    67 H28          3.8779     3.9660    10.2635 H            1 YIW1353   0.0000
    68 H29          4.6345     3.9997    11.7103 H            1 YIW1353   0.0000
    69 H30          4.7090     1.1350    12.1396 H            1 YIW1353   0.0000
    70 H31          4.2334     2.1625    13.3164 H            1 YIW1353   0.0000
    71 H32          3.2796     0.9057    12.8951 H            1 YIW1353   0.0000
    72 H33         -2.2300     0.0863    22.2240 H            1 YIW1353   0.0000
@<TRIPOS>BOND
     1    1    2       1
     2    2    3       1
     3    2    4       1
     4    4    5       2
     5    4   39       1
     6    5    6       1
     7    6    7       2
     8    7    8       1
     9    7   39       1
    10    8    9       2
    11    9   10       1
    12   10   11       1
    13   10   38       2
    14   11   12       1
    15   12   13      ar
    16   12   17      ar
    17   13   14      ar
    18   14   15      ar
    19   15   16      ar
    20   16   17      ar
    21   17   18       1
    22   18   19       1
    23   19   20      am
    24   20   21       2
    25   20   22      am
    26   22   23       1
    27   23   24       2
    28   23   27       1
    29   24   25       1
    30   25   26       2
    31   25   34       1
    32   26   27       1
    33   27   28       1
    34   28   29      ar
    35   28   33      ar
    36   29   30      ar
    37   30   31      ar
    38   31   32      ar
    39   32   33      ar
    40   34   35       1
    41   34   36       1
    42   34   37       1
    43   38   39       1
    44    1   40       1
    45    1   41       1
    46    1   42       1
    47    2   43       1
    48    3   44       1
    49    3   45       1
    50    3   46       1
    51    8   47       1
    52    9   48       1
    53   13   49       1
    54   14   50       1
    55   15   51       1
    56   16   52       1
    57   18   53       1
    58   18   54       1
    59   19   55       1
    60   22   56       1
    61   24   57       1
    62   29   58       1
    63   30   59       1
    64   31   60       1
    65   32   61       1
    66   33   62       1
    67   35   63       1
    68   35   64       1
    69   35   65       1
    70   36   66       1
    71   36   67       1
    72   36   68       1
    73   37   69       1
    74   37   70       1
    75   37   71       1
    76   38   72       1
@<TRIPOS>SUBSTRUCTURE
     1 YIW1353     1 GROUP             4 A     YIW     0 **** YIW A1353
