#    Name: 18551
#    Modification time : Wed Aug  9 00:30:30 2017

@<TRIPOS>MOLECULE
18551
   37     0     9     0     0
SMALL
NO_CHARGES


@<TRIPOS>ATOM
      1 N          13.6600  -22.7310   12.9240 N.am      1 SEL1        0.0000 
      2 O          15.3250  -23.8900   13.9680 O.2       2 ALL2        0.0000 
      3 O          11.9690  -28.0850   16.5610 O.2       2 ALL2        0.0000 
      4 O           9.9610  -26.1950   14.9410 O.2       2 ALL2        0.0000 
      5 CA         14.1140  -25.5480   15.0080 C.3       3 GLL5        0.0000 
      6 CA         13.2310  -24.7160   14.2970 C.3       3 GLL5        0.0000 
      7 CA          7.9780  -23.7300   12.9170 C.3       3 GLL5        0.0000 
      8 CA         10.3910  -23.2320   12.8700 C.3       3 GLL5        0.0000 
      9 CA         14.2440  -27.6960   16.5730 C.3       3 GLL5        0.0000 
     10 CA         15.6140  -27.9560   16.9370 C.3       3 GLL5        0.0000 
     11 CA         13.5000  -29.6710   17.9030 C.3       3 GLL5        0.0000 
     12 CA          9.0700  -22.9360   12.4880 C.3       3 GLL5        0.0000 
     13 CA         14.8600  -29.8990   18.2430 C.3       3 GLL5        0.0000 
     14 N          15.9470  -20.6690   13.8860 N.am      4 SEP1        0.0000 
     15 O          17.6980  -21.8980   13.0310 O.2       5 ALP2        0.0000 
     16 O           9.0050  -27.8390   16.8390 O.2       5 ALP2        0.0000 
     17 CA         14.4570  -22.5160   17.6100 C.3       6 GLP5        0.0000 
     18 CA         13.6110  -21.6040   16.7920 C.3       6 GLP5        0.0000 
     19 CA          6.9660  -20.8840   10.0610 C.3       6 GLP5        0.0000 
     20 CA          9.8800  -25.8090   10.5700 C.3       6 GLP5        0.0000 
     21 CA         15.4600  -30.0360   13.5600 C.3       6 GLP5        0.0000 
     22 CA         12.1860  -32.9200   19.6590 C.3       6 GLP5        0.0000 
     23 CA          8.4590  -20.6610    9.8350 C.3       6 GLP5        0.0000 
     24 CA         14.7300  -27.5750   21.0270 C.3       6 GLP5        0.0000 
     25 N          14.8035  -21.7000   13.4050 N.am      7 SEC1        0.0000 
     26 O          16.5115  -22.8940   13.4995 O.2       8 ALC2        0.0000 
     27 O          10.4870  -27.9620   16.7000 O.2       8 ALC2        0.0000 
     28 O           9.4830  -27.0170   15.8900 O.2       8 ALC2        0.0000 
     29 CA         14.2855  -24.0320   16.3090 C.3       9 GLC5        0.0000 
     30 CA         13.4210  -23.1600   15.5445 C.3       9 GLC5        0.0000 
     31 CA          7.4720  -22.3070   11.4890 C.3       9 GLC5        0.0000 
     32 CA         10.1355  -24.5205   11.7200 C.3       9 GLC5        0.0000 
     33 CA         14.5114  -28.9534   15.0861 C.3       9 GLC5        0.0000 
     34 CA         15.6103  -29.2707   15.4563 C.3       9 GLC5        0.0000 
     35 CA         13.1830  -31.3525   18.8660 C.3       9 GLC5        0.0000 
     36 CA          9.0948  -21.8725   11.2570 C.3       9 GLC5        0.0000 
     37 CA         14.7082  -28.1359   19.1898 C.3       9 GLC5        0.0000 
@<TRIPOS>BOND
@<TRIPOS>SUBSTRUCTURE
     1 SEL1        1 GROUP        1 Z    SEL  0     ROOT SEL Z 0
     2 ALL2        2 GROUP        1 Z    ALL  0     **** ALL Z 1
     3 GLL5        5 GROUP        1 Z    GLL  0     **** GLL Z 4
     4 SEP1       14 GROUP        1 Z    SEP  0     **** SEP Z 7
     5 ALP2       15 GROUP        1 Z    ALP  0     **** ALP Z 8
     6 GLP5       17 GROUP        1 Z    GLP  0     **** GLP Z 11
     7 SEC1       25 GROUP        1 Z    SEC  0     **** SEC Z 14
     8 ALC2       26 GROUP        1 Z    ALC  0     **** ALC Z 15
     9 GLC5       29 GROUP        1 Z    GLC  0     **** GLC Z 18
@<TRIPOS>SET

