2r0p_K2C_1_ligand
  -OEChem-08111718373D

 37 42  0     1  0  0  0  0  0999 V2000
    8.8976  -22.1461   11.8995 H   0  0  0  0  0  0  0  0  0  0  0  0
   16.8543  -29.2445   18.0263 H   0  0  0  0  0  0  0  0  0  0  0  0
    7.0527  -23.4877   12.6251 H   0  0  0  0  0  0  0  0  0  0  0  0
   15.0900  -30.6735   18.8323 H   0  0  0  0  0  0  0  0  0  0  0  0
   11.1514  -22.6619   12.5589 H   0  0  0  0  0  0  0  0  0  0  0  0
   16.3475  -27.3636   16.6038 H   0  0  0  0  0  0  0  0  0  0  0  0
    7.4001  -25.4288   14.0584 H   0  0  0  0  0  0  0  0  0  0  0  0
   12.7772  -30.2723   18.2435 H   0  0  0  0  0  0  0  0  0  0  0  0
   15.9415  -24.7828   15.7010 H   0  0  0  0  0  0  0  0  0  0  0  0
   16.1092  -25.7321   14.3829 H   0  0  0  0  0  0  0  0  0  0  0  0
    9.3853  -26.8926   15.3676 H   0  0  0  0  0  0  0  0  0  0  0  0
   11.0727  -28.4915   16.7380 H   0  0  0  0  0  0  0  0  0  0  0  0
   16.0774  -23.3145   13.6475 H   0  0  0  0  0  0  0  0  0  0  0  0
    9.0700  -22.9360   12.4880 C   0  0  0  0  0  0  0  0  0  0  0  0
   15.9070  -29.0550   17.7680 C   0  0  0  0  0  0  0  0  0  0  0  0
    7.9780  -23.7300   12.9170 C   0  0  0  0  0  0  0  0  0  0  0  0
   14.8600  -29.8990   18.2430 C   0  0  0  0  0  0  0  0  0  0  0  0
   10.3910  -23.2320   12.8700 C   0  0  0  0  0  0  0  0  0  0  0  0
   15.6140  -27.9560   16.9370 C   0  0  0  0  0  0  0  0  0  0  0  0
    8.1690  -24.8660   13.7550 C   0  0  0  0  0  0  0  0  0  0  0  0
   13.5000  -29.6710   17.9030 C   0  0  0  0  0  0  0  0  0  0  0  0
   10.6270  -24.3710   13.7170 C   0  0  0  0  0  0  0  0  0  0  0  0
   14.2440  -27.6960   16.5730 C   0  0  0  0  0  0  0  0  0  0  0  0
   11.7990  -24.9780   14.3020 C   0  0  0  0  0  0  0  0  0  0  0  0
   13.6230  -26.6830   15.7640 C   0  0  0  0  0  0  0  0  0  0  0  0
   13.2310  -24.7160   14.2970 C   0  0  0  0  0  0  0  0  0  0  0  0
   14.1140  -25.5480   15.0080 C   0  0  0  0  0  0  0  0  0  0  0  0
    9.5020  -25.1600   14.1380 C   0  0  0  0  0  0  0  0  0  0  0  0
   13.1920  -28.5520   17.0560 C   0  0  0  0  0  0  0  0  0  0  0  0
   11.3160  -26.1150   15.0590 C   0  0  0  0  0  0  0  0  0  0  0  0
   12.2110  -26.9650   15.7850 C   0  0  0  0  0  0  0  0  0  0  0  0
   14.0440  -23.6560   13.6390 C   0  0  0  0  0  0  0  0  0  0  0  0
   15.5330  -25.0460   14.8270 C   0  0  1  0  0  0  0  0  0  0  0  0
    9.9610  -26.1950   14.9410 N   0  0  0  0  0  0  0  0  0  0  0  0
   11.9690  -28.0850   16.5610 N   0  0  0  0  0  0  0  0  0  0  0  0
   15.3250  -23.8900   13.9680 N   0  0  0  0  0  0  0  0  0  0  0  0
   13.6600  -22.7310   12.9240 O   0  0  0  0  0  0  0  0  0  0  0  0
  1 14  1  0  0  0  0
  2 15  1  0  0  0  0
  3 16  1  0  0  0  0
  4 17  1  0  0  0  0
  5 18  1  0  0  0  0
  6 19  1  0  0  0  0
  7 20  1  0  0  0  0
  8 21  1  0  0  0  0
  9 33  1  0  0  0  0
 10 33  1  0  0  0  0
 11 34  1  0  0  0  0
 12 35  1  0  0  0  0
 13 36  1  0  0  0  0
 14 16  1  0  0  0  0
 14 18  2  0  0  0  0
 15 17  1  0  0  0  0
 15 19  2  0  0  0  0
 16 20  2  0  0  0  0
 17 21  2  0  0  0  0
 18 22  1  0  0  0  0
 19 23  1  0  0  0  0
 20 28  1  0  0  0  0
 21 29  1  0  0  0  0
 22 24  1  0  0  0  0
 22 28  2  0  0  0  0
 23 25  1  0  0  0  0
 23 29  2  0  0  0  0
 24 26  2  0  0  0  0
 24 30  1  0  0  0  0
 25 27  2  0  0  0  0
 25 31  1  0  0  0  0
 26 27  1  0  0  0  0
 26 32  1  0  0  0  0
 27 33  1  0  0  0  0
 28 34  1  0  0  0  0
 29 35  1  0  0  0  0
 30 31  2  0  0  0  0
 30 34  1  0  0  0  0
 31 35  1  0  0  0  0
 32 36  1  0  0  0  0
 32 37  2  0  0  0  0
 33 36  1  0  0  0  0
M  END
> <scpdb_id>
2r0p_1

$$$$
