@<TRIPOS>MOLECULE
2r0p_K2C_1_ligand
   37    42     1     0     0
SMALL
NO_CHARGES


@<TRIPOS>ATOM
     1 C7          15.5330   -25.0460    14.8270 C.3          1 K2C1185   0.0000
     2 N6          15.3250   -23.8900    13.9680 N.am         1 K2C1185   0.0000
     3 C22         14.1140   -25.5480    15.0080 C.ar         1 K2C1185   0.0000
     4 C21         13.6230   -26.6830    15.7640 C.ar         1 K2C1185   0.0000
     5 C18         12.2110   -26.9650    15.7850 C.ar         1 K2C1185   0.0000
     6 N12         11.9690   -28.0850    16.5610 N.pl3        1 K2C1185   0.0000
     7 C19         13.1920   -28.5520    17.0560 C.ar         1 K2C1185   0.0000
     8 C20         14.2440   -27.6960    16.5730 C.ar         1 K2C1185   0.0000
     9 C8          15.6140   -27.9560    16.9370 C.ar         1 K2C1185   0.0000
    10 C9          15.9070   -29.0550    17.7680 C.ar         1 K2C1185   0.0000
    11 C10         14.8600   -29.8990    18.2430 C.ar         1 K2C1185   0.0000
    12 C11         13.5000   -29.6710    17.9030 C.ar         1 K2C1185   0.0000
    13 O24         13.6600   -22.7310    12.9240 O.2          1 K2C1185   0.0000
    14 C5          14.0440   -23.6560    13.6390 C.2          1 K2C1185   0.0000
    15 C23         13.2310   -24.7160    14.2970 C.ar         1 K2C1185   0.0000
    16 C16         11.7990   -24.9780    14.3020 C.ar         1 K2C1185   0.0000
    17 C17         11.3160   -26.1150    15.0590 C.ar         1 K2C1185   0.0000
    18 N13          9.9610   -26.1950    14.9410 N.pl3        1 K2C1185   0.0000
    19 C14          9.5020   -25.1600    14.1380 C.ar         1 K2C1185   0.0000
    20 C15         10.6270   -24.3710    13.7170 C.ar         1 K2C1185   0.0000
    21 C4          10.3910   -23.2320    12.8700 C.ar         1 K2C1185   0.0000
    22 C3           9.0700   -22.9360    12.4880 C.ar         1 K2C1185   0.0000
    23 C2           7.9780   -23.7300    12.9170 C.ar         1 K2C1185   0.0000
    24 C1           8.1690   -24.8660    13.7550 C.ar         1 K2C1185   0.0000
    25 H1          15.9415   -24.7828    15.7010 H            1 K2C1185   0.0000
    26 H2          16.1092   -25.7321    14.3829 H            1 K2C1185   0.0000
    27 H3          16.0774   -23.3145    13.6475 H            1 K2C1185   0.0000
    28 H4          11.0727   -28.4915    16.7380 H            1 K2C1185   0.0000
    29 H5          16.3475   -27.3636    16.6038 H            1 K2C1185   0.0000
    30 H6          16.8543   -29.2445    18.0263 H            1 K2C1185   0.0000
    31 H7          15.0900   -30.6735    18.8323 H            1 K2C1185   0.0000
    32 H8          12.7772   -30.2723    18.2435 H            1 K2C1185   0.0000
    33 H9           9.3853   -26.8926    15.3676 H            1 K2C1185   0.0000
    34 H10         11.1514   -22.6619    12.5589 H            1 K2C1185   0.0000
    35 H11          8.8976   -22.1461    11.8995 H            1 K2C1185   0.0000
    36 H12          7.0527   -23.4877    12.6251 H            1 K2C1185   0.0000
    37 H13          7.4001   -25.4288    14.0584 H            1 K2C1185   0.0000
@<TRIPOS>BOND
     1    1    2       1
     2    1    3       1
     3    2   14      am
     4    3    4      ar
     5    3   15      ar
     6    4    5      ar
     7    4    8       1
     8    5    6       1
     9    5   17      ar
    10    6    7       1
    11    7    8      ar
    12    7   12      ar
    13    8    9      ar
    14    9   10      ar
    15   10   11      ar
    16   11   12      ar
    17   13   14       2
    18   14   15       1
    19   15   16      ar
    20   16   17      ar
    21   16   20       1
    22   17   18       1
    23   18   19       1
    24   19   20      ar
    25   19   24      ar
    26   20   21      ar
    27   21   22      ar
    28   22   23      ar
    29   23   24      ar
    30    1   25       1
    31    1   26       1
    32    2   27       1
    33    6   28       1
    34    9   29       1
    35   10   30       1
    36   11   31       1
    37   12   32       1
    38   18   33       1
    39   21   34       1
    40   22   35       1
    41   23   36       1
    42   24   37       1
@<TRIPOS>SUBSTRUCTURE
     1 K2C1185     1 GROUP             4 A     K2C     0 **** K2C A1185
