@<TRIPOS>MOLECULE
*****
 9 0 0 0 0
SMALL
GASTEIGER

@<TRIPOS>ATOM
      1 *         -14.2340   -8.0111    6.4114 Du      1  UNL1        0.0000
      2 *         -14.2340   -8.0111    8.4114 Du      2  UNL2        0.0000
      3 *         -14.2340   -8.0111   10.4114 Du      3  UNL3        0.0000
      4 *         -14.2340   -8.0111   12.4114 Du      4  UNL4        0.0000
      5 *         -14.2340   -6.0111    8.4114 Du      5  UNL5        0.0000
      6 *         -12.2340   -8.0111    6.4114 Du      6  UNL6        0.0000
      7 *         -12.2340   -8.0111   10.4114 Du      7  UNL7        0.0000
      8 *         -10.2340   -8.0111    8.4114 Du      8  UNL8        0.0000
      9 *         -10.2340   -8.0111   10.4114 Du      9  UNL9        0.0000
@<TRIPOS>BOND
