#    Name: 15146
#    Modification time : Tue Aug  8 22:53:08 2017

@<TRIPOS>MOLECULE
15146
   84     0     6     0     0
SMALL
NO_CHARGES


@<TRIPOS>ATOM
      1 N          18.6300  -12.1930    2.2430 N.am      1 SEL1        0.0000 
      2 N          19.6860  -14.1030    2.9310 N.am      1 SEL1        0.0000 
      3 N          20.3150  -11.8370    5.0300 N.am      1 SEL1        0.0000 
      4 CA         20.0170  -12.0190   -0.1920 C.3       2 GLL5        0.0000 
      5 CA         20.4520  -12.1560   -1.5110 C.3       2 GLL5        0.0000 
      6 CA         21.6530   -9.7380    6.3450 C.3       2 GLL5        0.0000 
      7 CA         19.7160   -4.9140    7.8500 C.3       2 GLL5        0.0000 
      8 CA         18.8200   -4.4300    6.0920 C.3       2 GLL5        0.0000 
      9 CA         20.9260   -5.7280    4.9950 C.3       2 GLL5        0.0000 
     10 CA         24.7620   -9.3550    6.6540 C.3       2 GLL5        0.0000 
     11 CA         26.1510   -9.3320    6.6300 C.3       2 GLL5        0.0000 
     12 CA         26.8200  -10.1560    5.7320 C.3       2 GLL5        0.0000 
     13 CA         26.1190  -10.9990    4.8420 C.3       2 GLL5        0.0000 
     14 CA         24.6700  -12.3090    1.9430 C.3       2 GLL5        0.0000 
     15 CA         25.0830  -16.7950    0.2370 C.3       2 GLL5        0.0000 
     16 CA         21.1880  -14.0430    0.3650 C.3       2 GLL5        0.0000 
     17 CA         21.9180   -6.4880    4.3520 C.3       2 GLL5        0.0000 
     18 CA         20.4830   -7.5450    6.4930 C.3       2 GLL5        0.0000 
     19 CA         24.0480  -10.1710    5.7600 C.3       2 GLL5        0.0000 
     20 CA         23.7830  -14.1030    3.2470 C.3       2 GLL5        0.0000 
     21 CA         21.4350   -8.3340    5.8210 C.3       2 GLL5        0.0000 
     22 CA         18.1640   -6.0570    7.2290 C.3       2 GLL5        0.0000 
     23 N          18.0020  -15.2670    1.3550 N.am      3 SEP1        0.0000 
     24 N          19.1900  -14.5430    6.1240 N.am      3 SEP1        0.0000 
     25 N          17.8070  -11.4980    5.6420 N.am      3 SEP1        0.0000 
     26 CA         19.6050   -8.5270    2.0550 C.3       4 GLP5        0.0000 
     27 CA         20.0740   -8.4760   -3.5070 C.3       4 GLP5        0.0000 
     28 CA         19.4790   -8.2920    9.9920 C.3       4 GLP5        0.0000 
     29 CA         21.1330   -1.4180    5.5840 C.3       4 GLP5        0.0000 
     30 CA         22.7820   -3.9680   10.0500 C.3       4 GLP5        0.0000 
     31 CA         16.5040   -3.0730    3.9230 C.3       4 GLP5        0.0000 
     32 CA         16.3360   -1.9300    7.4580 C.3       4 GLP5        0.0000 
     33 CA         23.4270   -6.0800    8.8290 C.3       4 GLP5        0.0000 
     34 CA         24.2140   -9.9350   10.5060 C.3       4 GLP5        0.0000 
     35 CA         28.8210   -7.1060    8.4760 C.3       4 GLP5        0.0000 
     36 CA         30.4480  -11.5700    5.9430 C.3       4 GLP5        0.0000 
     37 CA         27.2260  -15.1150    4.8920 C.3       4 GLP5        0.0000 
     38 CA         25.9000   -8.4710    2.7570 C.3       4 GLP5        0.0000 
     39 CA         28.1260  -18.6370    1.8620 C.3       4 GLP5        0.0000 
     40 CA         25.2480  -19.8340   -1.0290 C.3       4 GLP5        0.0000 
     41 CA         20.9340  -18.0020    0.0490 C.3       4 GLP5        0.0000 
     42 CA         25.1220   -7.3520    1.7030 C.3       4 GLP5        0.0000 
     43 CA         23.3670  -13.7900    7.4230 C.3       4 GLP5        0.0000 
     44 CA         26.0610  -11.5170    9.7040 C.3       4 GLP5        0.0000 
     45 CA         28.9030  -11.6280    2.0660 C.3       4 GLP5        0.0000 
     46 CA         23.4450  -16.4220    6.1110 C.3       4 GLP5        0.0000 
     47 CA         17.6160   -2.8280   10.1080 C.3       4 GLP5        0.0000 
     48 CA         18.8270   -8.3570    3.3940 C.3       4 GLP5        0.0000 
     49 N          18.3160  -13.7300    1.7990 N.am      5 SEC1        0.0000 
     50 N          18.8440  -14.6850    2.1430 N.am      5 SEC1        0.0000 
     51 N          19.4380  -14.3230    4.5275 N.am      5 SEC1        0.0000 
     52 N          19.7525  -13.1900    5.5770 N.am      5 SEC1        0.0000 
     53 N          19.0610  -11.6675    5.3360 N.am      5 SEC1        0.0000 
     54 CA         19.8110  -10.2730    0.9315 C.3       6 GLC5        0.0000 
     55 CA         20.2630  -10.3160   -2.5090 C.3       6 GLC5        0.0000 
     56 CA         20.5660   -9.0150    8.1685 C.3       6 GLC5        0.0000 
     57 CA         20.4245   -3.1660    6.7170 C.3       6 GLC5        0.0000 
     58 CA         21.2490   -4.4410    8.9500 C.3       6 GLC5        0.0000 
     59 CA         17.6620   -3.7515    5.0075 C.3       6 GLC5        0.0000 
     60 CA         19.9765   -2.9240    5.8380 C.3       6 GLC5        0.0000 
     61 CA         17.5780   -3.1800    6.7750 C.3       6 GLC5        0.0000 
     62 CA         21.0295   -3.5730    5.2895 C.3       6 GLC5        0.0000 
     63 CA         24.0945   -7.7175    7.7415 C.3       6 GLC5        0.0000 
     64 CA         24.4880   -9.6450    8.5800 C.3       6 GLC5        0.0000 
     65 CA         27.4860   -8.2190    7.5530 C.3       6 GLC5        0.0000 
     66 CA         28.6340  -10.8630    5.8375 C.3       6 GLC5        0.0000 
     67 CA         26.6725  -13.0570    4.8670 C.3       6 GLC5        0.0000 
     68 CA         25.2850  -10.3900    2.3500 C.3       6 GLC5        0.0000 
     69 CA         26.6045  -17.7160    1.0495 C.3       6 GLC5        0.0000 
     70 CA         25.1655  -18.3145   -0.3960 C.3       6 GLC5        0.0000 
     71 CA         23.0085  -17.3985    0.1430 C.3       6 GLC5        0.0000 
     72 CA         21.1725  -16.0580   -0.1230 C.3       6 GLC5        0.0000 
     73 CA         23.5787   -7.2495    3.1310 C.3       6 GLC5        0.0000 
     74 CA         22.0092   -6.5876    7.4698 C.3       6 GLC5        0.0000 
     75 CA         23.8758  -12.1822    6.3607 C.3       6 GLC5        0.0000 
     76 CA         26.2733  -10.6305    7.9425 C.3       6 GLC5        0.0000 
     77 CA         27.6863  -11.1028    3.6765 C.3       6 GLC5        0.0000 
     78 CA         26.8830  -12.1958    1.7552 C.3       6 GLC5        0.0000 
     79 CA         23.7085  -15.4947    4.4275 C.3       6 GLC5        0.0000 
     80 CA         25.6306  -14.6677    3.7995 C.3       6 GLC5        0.0000 
     81 CA         18.3433   -4.1406    8.6379 C.3       6 GLC5        0.0000 
     82 CA         19.9700   -7.7681    4.4884 C.3       6 GLC5        0.0000 
     83 CA         19.3146   -6.9966    8.4817 C.3       6 GLC5        0.0000 
     84 CA         25.7137   -9.2672    4.3058 C.3       6 GLC5        0.0000 
@<TRIPOS>BOND
@<TRIPOS>SUBSTRUCTURE
     1 SEL1        1 GROUP        1 Z    SEL  0     ROOT SEL Z 0
     2 GLL5        4 GROUP        1 Z    GLL  0     **** GLL Z 4
     3 SEP1       23 GROUP        1 Z    SEP  0     **** SEP Z 7
     4 GLP5       26 GROUP        1 Z    GLP  0     **** GLP Z 11
     5 SEC1       49 GROUP        1 Z    SEC  0     **** SEC Z 14
     6 GLC5       54 GROUP        1 Z    GLC  0     **** GLC Z 18
@<TRIPOS>SET

