2hfp_NSI_1_ligand
  -OEChem-08111718373D

 63 67  0     1  0  0  0  0  0999 V2000
   21.5578  -13.3285   -2.8601 H   0  0  0  0  0  0  0  0  0  0  0  0
   27.8199  -10.1516    5.7160 H   0  0  0  0  0  0  0  0  0  0  0  0
   26.6606   -8.7332    7.2478 H   0  0  0  0  0  0  0  0  0  0  0  0
   20.1848  -11.4700   -2.1877 H   0  0  0  0  0  0  0  0  0  0  0  0
   22.2158  -14.9571   -1.2108 H   0  0  0  0  0  0  0  0  0  0  0  0
   22.4518   -6.0915    3.6051 H   0  0  0  0  0  0  0  0  0  0  0  0
   26.6173  -11.6047    4.2217 H   0  0  0  0  0  0  0  0  0  0  0  0
   24.8605  -11.3362    1.8113 H   0  0  0  0  0  0  0  0  0  0  0  0
   23.3301  -14.4336    4.0750 H   0  0  0  0  0  0  0  0  0  0  0  0
   22.8393   -8.3631    4.2984 H   0  0  0  0  0  0  0  0  0  0  0  0
   20.7266   -4.8013    4.6763 H   0  0  0  0  0  0  0  0  0  0  0  0
   24.2671   -8.7872    7.3118 H   0  0  0  0  0  0  0  0  0  0  0  0
   25.5128  -12.8788    0.1236 H   0  0  0  0  0  0  0  0  0  0  0  0
   23.9641  -16.0059    2.3543 H   0  0  0  0  0  0  0  0  0  0  0  0
   19.4493  -11.2387    0.0705 H   0  0  0  0  0  0  0  0  0  0  0  0
   21.4594  -14.7271    1.0420 H   0  0  0  0  0  0  0  0  0  0  0  0
   19.9924   -7.9174    7.2808 H   0  0  0  0  0  0  0  0  0  0  0  0
   25.4209  -17.2797   -0.5697 H   0  0  0  0  0  0  0  0  0  0  0  0
   25.6032  -17.0829    1.0411 H   0  0  0  0  0  0  0  0  0  0  0  0
   24.1153  -17.0074    0.3725 H   0  0  0  0  0  0  0  0  0  0  0  0
   21.8882   -9.6946    7.3160 H   0  0  0  0  0  0  0  0  0  0  0  0
   20.8125  -10.2673    6.2290 H   0  0  0  0  0  0  0  0  0  0  0  0
   21.6275  -11.5161    2.3125 H   0  0  0  0  0  0  0  0  0  0  0  0
   21.2590  -13.2390   -1.9100 C   0  0  0  0  0  0  0  0  0  0  0  0
   26.8200  -10.1560    5.7320 C   0  0  0  0  0  0  0  0  0  0  0  0
   26.1510   -9.3320    6.6300 C   0  0  0  0  0  0  0  0  0  0  0  0
   20.4520  -12.1560   -1.5110 C   0  0  0  0  0  0  0  0  0  0  0  0
   21.6340  -14.1850   -0.9550 C   0  0  0  0  0  0  0  0  0  0  0  0
   21.9180   -6.4880    4.3520 C   0  0  0  0  0  0  0  0  0  0  0  0
   26.1190  -10.9990    4.8420 C   0  0  0  0  0  0  0  0  0  0  0  0
   24.6700  -12.3090    1.9430 C   0  0  0  0  0  0  0  0  0  0  0  0
   23.7830  -14.1030    3.2470 C   0  0  0  0  0  0  0  0  0  0  0  0
   22.1530   -7.8060    4.7660 C   0  0  0  0  0  0  0  0  0  0  0  0
   20.9260   -5.7280    4.9950 C   0  0  0  0  0  0  0  0  0  0  0  0
   24.7620   -9.3550    6.6540 C   0  0  0  0  0  0  0  0  0  0  0  0
   25.0560  -13.2180    0.9460 C   0  0  0  0  0  0  0  0  0  0  0  0
   24.1610  -15.0320    2.2410 C   0  0  0  0  0  0  0  0  0  0  0  0
   20.0170  -12.0190   -0.1920 C   0  0  0  0  0  0  0  0  0  0  0  0
   21.1880  -14.0430    0.3650 C   0  0  0  0  0  0  0  0  0  0  0  0
   20.4830   -7.5450    6.4930 C   0  0  0  0  0  0  0  0  0  0  0  0
   24.7210  -10.9780    4.8370 C   0  0  0  0  0  0  0  0  0  0  0  0
   24.0360  -12.7150    3.0990 C   0  0  0  0  0  0  0  0  0  0  0  0
   23.7910  -11.7290    4.1010 C   0  0  0  0  0  0  0  0  0  0  0  0
   21.4350   -8.3340    5.8210 C   0  0  0  0  0  0  0  0  0  0  0  0
   20.2240   -6.2510    6.0640 C   0  0  0  0  0  0  0  0  0  0  0  0
   24.0480  -10.1710    5.7600 C   0  0  0  0  0  0  0  0  0  0  0  0
   24.8180  -14.5680    1.0780 C   0  0  0  0  0  0  0  0  0  0  0  0
   20.3800  -12.9830    0.7680 C   0  0  0  0  0  0  0  0  0  0  0  0
   22.5620  -11.3060    4.6190 C   0  0  0  0  0  0  0  0  0  0  0  0
   21.2540  -11.9070    4.2260 C   0  0  0  0  0  0  0  0  0  0  0  0
   25.0830  -16.7950    0.2370 C   0  0  0  0  0  0  0  0  0  0  0  0
   21.6530   -9.7380    6.3450 C   0  0  1  0  0  0  0  0  0  0  0  0
   19.2010   -5.4210    6.7960 C   0  0  1  0  0  0  0  0  0  0  0  0
   22.7430  -10.3940    5.6120 N   0  0  0  0  0  0  0  0  0  0  0  0
   21.0210  -12.0120    2.9340 N   0  0  0  0  0  0  0  0  0  0  0  0
   20.3150  -11.8370    5.0300 O   0  0  0  0  0  0  0  0  0  0  0  0
   18.6300  -12.1930    2.2430 O   0  0  0  0  0  0  0  0  0  0  0  0
   19.6860  -14.1030    2.9310 O   0  0  0  0  0  0  0  0  0  0  0  0
   25.2390  -15.3930    0.0480 O   0  0  0  0  0  0  0  0  0  0  0  0
   18.1640   -6.0570    7.2290 F   0  0  0  0  0  0  0  0  0  0  0  0
   19.7160   -4.9140    7.8500 F   0  0  0  0  0  0  0  0  0  0  0  0
   18.8200   -4.4300    6.0920 F   0  0  0  0  0  0  0  0  0  0  0  0
   19.8850  -12.8410    2.3100 S   0  0  1  0  0  0  0  0  0  0  0  0
  1 24  1  0  0  0  0
  2 25  1  0  0  0  0
  3 26  1  0  0  0  0
  4 27  1  0  0  0  0
  5 28  1  0  0  0  0
  6 29  1  0  0  0  0
  7 30  1  0  0  0  0
  8 31  1  0  0  0  0
  9 32  1  0  0  0  0
 10 33  1  0  0  0  0
 11 34  1  0  0  0  0
 12 35  1  0  0  0  0
 13 36  1  0  0  0  0
 14 37  1  0  0  0  0
 15 38  1  0  0  0  0
 16 39  1  0  0  0  0
 17 40  1  0  0  0  0
 18 51  1  0  0  0  0
 19 51  1  0  0  0  0
 20 51  1  0  0  0  0
 21 52  1  0  0  0  0
 22 52  1  0  0  0  0
 23 55  1  0  0  0  0
 24 27  2  0  0  0  0
 24 28  1  0  0  0  0
 25 26  2  0  0  0  0
 25 30  1  0  0  0  0
 26 35  1  0  0  0  0
 27 38  1  0  0  0  0
 28 39  2  0  0  0  0
 29 33  1  0  0  0  0
 29 34  2  0  0  0  0
 30 41  2  0  0  0  0
 31 36  1  0  0  0  0
 31 42  2  0  0  0  0
 32 37  2  0  0  0  0
 32 42  1  0  0  0  0
 33 44  2  0  0  0  0
 34 45  1  0  0  0  0
 35 46  2  0  0  0  0
 36 47  2  0  0  0  0
 37 47  1  0  0  0  0
 38 48  2  0  0  0  0
 39 48  1  0  0  0  0
 40 44  1  0  0  0  0
 40 45  2  0  0  0  0
 41 43  1  0  0  0  0
 41 46  1  0  0  0  0
 42 43  1  0  0  0  0
 43 49  2  0  0  0  0
 44 52  1  0  0  0  0
 45 53  1  0  0  0  0
 46 54  1  0  0  0  0
 47 59  1  0  0  0  0
 48 63  1  0  0  0  0
 49 50  1  0  0  0  0
 49 54  1  0  0  0  0
 50 55  1  0  0  0  0
 50 56  2  0  0  0  0
 51 59  1  0  0  0  0
 52 54  1  0  0  0  0
 53 60  1  0  0  0  0
 53 61  1  0  0  0  0
 53 62  1  0  0  0  0
 55 63  1  0  0  0  0
 57 63  2  0  0  0  0
 58 63  2  0  0  0  0
M  END
> <scpdb_id>
2hfp_1

$$$$
