#    Name: 16790
#    Modification time : Tue Aug  8 20:32:54 2017

@<TRIPOS>MOLECULE
16790
   26     0    12     0     0
SMALL
NO_CHARGES


@<TRIPOS>ATOM
      1 N         -15.1250   44.6050   49.7080 N.am      1 SEL1        0.0000 
      2 N         -16.5740   42.5080   49.8110 N.am      1 SEL1        0.0000 
      3 O         -17.8800   41.7120   58.3460 O.2       2 ALL2        0.0000 
      4 CA        -13.8250   43.7830   52.1820 C.3       3 GLL5        0.0000 
      5 CA        -12.7040   42.9180   52.8060 C.3       3 GLL5        0.0000 
      6 CA        -12.8140   42.3360   55.1130 C.3       3 GLL5        0.0000 
      7 Zn        -15.2500   40.1750   50.4270 Zn        4 ZIL7        0.0000 
      8 Zn        -14.9220   40.4130   47.8970 Zn        4 ZIL7        0.0000 
      9 N         -17.6500   45.6610   50.1000 N.am      5 SEP1        0.0000 
     10 N         -18.1500   42.7730   52.8120 N.am      5 SEP1        0.0000 
     11 O         -18.3110   42.4180   61.3350 O.2       6 ALP2        0.0000 
     12 O         -19.6490   40.3770   60.4960 O.2       6 ALP2        0.0000 
     13 CA        -16.5680   46.4090   52.2040 C.3       7 GLP5        0.0000 
     14 CA         -9.7000   44.6890   55.1100 C.3       7 GLP5        0.0000 
     15 CA        -12.3010   44.0940   58.7320 C.3       7 GLP5        0.0000 
     16 Zn        -17.0970   40.8960   49.3020 Zn        8 ZIP7        0.0000 
     17 N         -16.3875   45.1330   49.9040 N.am      9 SEC1        0.0000 
     18 N         -17.3620   42.6405   51.3115 N.am      9 SEC1        0.0000 
     19 O         -18.0955   42.0650   59.8405 O.2      10 ALC2        0.0000 
     20 O         -18.7645   41.0445   59.4210 O.2      10 ALC2        0.0000 
     21 CA        -15.1965   45.0960   52.1930 C.3      11 GLC5        0.0000 
     22 CA        -11.2020   43.8035   53.9580 C.3      11 GLC5        0.0000 
     23 CA        -12.5575   43.2150   56.9225 C.3      11 GLC5        0.0000 
     24 CA        -11.2570   43.5125   55.1115 C.3      11 GLC5        0.0000 
     25 Zn        -16.1735   40.5355   49.8645 Zn       12 ZIC7        0.0000 
     26 Zn        -16.0095   40.6545   48.5995 Zn       12 ZIC7        0.0000 
@<TRIPOS>BOND
@<TRIPOS>SUBSTRUCTURE
     1 SEL1        1 GROUP        1 Z    SEL  0     ROOT SEL Z 0
     2 ALL2        3 GROUP        1 Z    ALL  0     **** ALL Z 1
     3 GLL5        4 GROUP        1 Z    GLL  0     **** GLL Z 4
     4 ZIL7        7 GROUP        1 Z    ZIL  0     **** ZIL Z 5
     5 SEP1        9 GROUP        1 Z    SEP  0     **** SEP Z 7
     6 ALP2       11 GROUP        1 Z    ALP  0     **** ALP Z 8
     7 GLP5       13 GROUP        1 Z    GLP  0     **** GLP Z 11
     8 ZIP7       16 GROUP        1 Z    ZIP  0     **** ZIP Z 12
     9 SEC1       17 GROUP        1 Z    SEC  0     **** SEC Z 14
    10 ALC2       19 GROUP        1 Z    ALC  0     **** ALC Z 15
    11 GLC5       21 GROUP        1 Z    GLC  0     **** GLC Z 18
    12 ZIC7       25 GROUP        1 Z    ZIC  0     **** ZIC Z 19
@<TRIPOS>SET

