2o1v_ADP_2_ligand
  -OEChem-08111718373D

 39 41  0     1  0  0  0  0  0999 V2000
  -14.0732   39.9249   59.4027 H   0  0  0  0  0  0  0  0  0  0  0  0
  -15.2940   43.5614   54.3794 H   0  0  0  0  0  0  0  0  0  0  0  0
  -13.9473   41.2122   52.8102 H   0  0  0  0  0  0  0  0  0  0  0  0
  -12.9514   40.2665   54.6838 H   0  0  0  0  0  0  0  0  0  0  0  0
  -11.8465   43.0715   52.3149 H   0  0  0  0  0  0  0  0  0  0  0  0
  -12.1557   42.4209   55.8609 H   0  0  0  0  0  0  0  0  0  0  0  0
  -14.1805   44.3941   52.8893 H   0  0  0  0  0  0  0  0  0  0  0  0
  -13.4277   44.3254   51.4417 H   0  0  0  0  0  0  0  0  0  0  0  0
  -18.3201   41.3145   59.1511 H   0  0  0  0  0  0  0  0  0  0  0  0
  -18.4101   42.2782   57.7148 H   0  0  0  0  0  0  0  0  0  0  0  0
  -12.7012   40.6307   51.0936 H   0  0  0  0  0  0  0  0  0  0  0  0
  -10.7917   40.5481   53.3769 H   0  0  0  0  0  0  0  0  0  0  0  0
  -14.5780   40.4910   58.7510 C   0  0  0  0  0  0  0  0  0  0  0  0
  -15.2880   43.0060   55.2110 C   0  0  0  0  0  0  0  0  0  0  0  0
  -15.9470   42.0270   57.0020 C   0  0  0  0  0  0  0  0  0  0  0  0
  -14.5990   41.7560   56.8130 C   0  0  0  0  0  0  0  0  0  0  0  0
  -16.5860   41.4870   58.1140 C   0  0  0  0  0  0  0  0  0  0  0  0
  -12.9740   41.4160   52.9160 C   0  0  1  0  0  0  0  0  0  0  0  0
  -12.4840   41.0700   54.3150 C   0  0  2  0  0  0  0  0  0  0  0  0
  -12.7040   42.9180   52.8060 C   0  0  1  0  0  0  0  0  0  0  0  0
  -12.8140   42.3360   55.1130 C   0  0  2  0  0  0  0  0  0  0  0  0
  -13.8250   43.7830   52.1820 C   0  0  1  0  0  0  0  0  0  0  0  0
  -13.9460   40.9880   57.7010 N   0  0  0  0  0  0  0  0  0  0  0  0
  -15.8680   40.7270   58.9590 N   0  0  0  0  0  0  0  0  0  0  0  0
  -16.3450   42.7940   55.9930 N   0  0  0  0  0  0  0  0  0  0  0  0
  -14.2170   42.3690   55.6980 N   0  0  0  0  0  0  0  0  0  0  0  0
  -17.8800   41.7120   58.3460 N   0  0  0  0  0  0  0  0  0  0  0  0
  -12.8760   40.0050   49.4820 O   0  5  0  0  0  0  0  0  0  0  0  0
  -14.9220   40.4130   47.8970 O   0  5  0  0  0  0  0  0  0  0  0  0
  -16.5740   42.5080   49.8110 O   0  5  0  0  0  0  0  0  0  0  0  0
  -15.2500   40.1750   50.4270 O   0  0  0  0  0  0  0  0  0  0  0  0
  -15.1250   44.6050   49.7080 O   0  0  0  0  0  0  0  0  0  0  0  0
  -12.5870   43.4230   54.1710 O   0  0  0  0  0  0  0  0  0  0  0  0
  -12.1850   40.7140   51.9460 O   0  0  0  0  0  0  0  0  0  0  0  0
  -11.0610   40.8880   54.2780 O   0  0  0  0  0  0  0  0  0  0  0  0
  -14.9230   43.0250   51.6470 O   0  0  0  0  0  0  0  0  0  0  0  0
  -14.1100   42.3000   49.4640 O   0  0  0  0  0  0  0  0  0  0  0  0
  -14.3320   40.7010   49.3870 P   0  0  0  0  0  0  0  0  0  0  0  0
  -15.2880   43.1840   50.0860 P   0  0  1  0  0  0  0  0  0  0  0  0
  1 13  1  0  0  0  0
  2 14  1  0  0  0  0
  3 18  1  0  0  0  0
  4 19  1  0  0  0  0
  5 20  1  0  0  0  0
  6 21  1  0  0  0  0
  7 22  1  0  0  0  0
  8 22  1  0  0  0  0
  9 27  1  0  0  0  0
 10 27  1  0  0  0  0
 11 34  1  0  0  0  0
 12 35  1  0  0  0  0
 13 23  1  0  0  0  0
 13 24  2  0  0  0  0
 14 25  2  0  0  0  0
 14 26  1  0  0  0  0
 15 16  1  0  0  0  0
 15 17  2  0  0  0  0
 15 25  1  0  0  0  0
 16 23  2  0  0  0  0
 16 26  1  0  0  0  0
 17 24  1  0  0  0  0
 17 27  1  0  0  0  0
 18 19  1  0  0  0  0
 18 20  1  0  0  0  0
 18 34  1  0  0  0  0
 19 21  1  0  0  0  0
 19 35  1  0  0  0  0
 20 22  1  0  0  0  0
 20 33  1  0  0  0  0
 21 26  1  0  0  0  0
 21 33  1  0  0  0  0
 22 36  1  0  0  0  0
 28 38  1  0  0  0  0
 29 38  1  0  0  0  0
 30 39  1  0  0  0  0
 31 38  2  0  0  0  0
 32 39  2  0  0  0  0
 36 39  1  0  0  0  0
 37 38  1  0  0  0  0
 37 39  1  0  0  0  0
M  CHG  3  28  -1  29  -1  30  -1
M  END
> <scpdb_id>
2o1v_2

$$$$
