@<TRIPOS>MOLECULE
2o1v_ADP_2_ligand
   39    41     1     0     0
SMALL
NO_CHARGES


@<TRIPOS>ATOM
     1 PB         -14.3320    40.7010    49.3870 P.3          1 ADP302   0.0000
     2 O1B        -15.2500    40.1750    50.4270 O.co2        1 ADP302   0.0000
     3 O2B        -12.8760    40.0050    49.4820 O.co2        1 ADP302  -1.0000
     4 O3B        -14.9220    40.4130    47.8970 O.co2        1 ADP302  -1.0000
     5 PA         -15.2880    43.1840    50.0860 P.3          1 ADP302   0.0000
     6 O1A        -15.1250    44.6050    49.7080 O.co2        1 ADP302   0.0000
     7 O2A        -16.5740    42.5080    49.8110 O.co2        1 ADP302  -1.0000
     8 O3A        -14.1100    42.3000    49.4640 O.3          1 ADP302   0.0000
     9 O5'        -14.9230    43.0250    51.6470 O.3          1 ADP302   0.0000
    10 C5'        -13.8250    43.7830    52.1820 C.3          1 ADP302   0.0000
    11 C4'        -12.7040    42.9180    52.8060 C.3          1 ADP302   0.0000
    12 O4'        -12.5870    43.4230    54.1710 O.3          1 ADP302   0.0000
    13 C3'        -12.9740    41.4160    52.9160 C.3          1 ADP302   0.0000
    14 O3'        -12.1850    40.7140    51.9460 O.3          1 ADP302   0.0000
    15 C2'        -12.4840    41.0700    54.3150 C.3          1 ADP302   0.0000
    16 O2'        -11.0610    40.8880    54.2780 O.3          1 ADP302   0.0000
    17 C1'        -12.8140    42.3360    55.1130 C.3          1 ADP302   0.0000
    18 N9         -14.2170    42.3690    55.6980 N.pl3        1 ADP302   0.0000
    19 C8         -15.2880    43.0060    55.2110 C.2          1 ADP302   0.0000
    20 N7         -16.3450    42.7940    55.9930 N.2          1 ADP302   0.0000
    21 C5         -15.9470    42.0270    57.0020 C.ar         1 ADP302   0.0000
    22 C6         -16.5860    41.4870    58.1140 C.ar         1 ADP302   0.0000
    23 N6         -17.8800    41.7120    58.3460 N.pl3        1 ADP302   0.0000
    24 N1         -15.8680    40.7270    58.9590 N.ar         1 ADP302   0.0000
    25 C2         -14.5780    40.4910    58.7510 C.ar         1 ADP302   0.0000
    26 N3         -13.9460    40.9880    57.7010 N.ar         1 ADP302   0.0000
    27 C4         -14.5990    41.7560    56.8130 C.ar         1 ADP302   0.0000
    28 H5'1       -14.1805    44.3941    52.8893 H            1 ADP302   0.0000
    29 H5'2       -13.4277    44.3254    51.4417 H            1 ADP302   0.0000
    30 H4'        -11.8465    43.0715    52.3149 H            1 ADP302   0.0000
    31 H3'        -13.9473    41.2122    52.8102 H            1 ADP302   0.0000
    32 H5         -12.7012    40.6307    51.0936 H            1 ADP302   0.0000
    33 H2'        -12.9514    40.2665    54.6838 H            1 ADP302   0.0000
    34 H7         -10.7917    40.5481    53.3769 H            1 ADP302   0.0000
    35 H1'        -12.1557    42.4209    55.8609 H            1 ADP302   0.0000
    36 H9         -15.2940    43.5614    54.3794 H            1 ADP302   0.0000
    37 H10        -18.3201    41.3145    59.1511 H            1 ADP302   0.0000
    38 H11        -18.4101    42.2782    57.7148 H            1 ADP302   0.0000
    39 H12        -14.0732    39.9249    59.4027 H            1 ADP302   0.0000
@<TRIPOS>BOND
     1    1    2      ar
     2    1    3      ar
     3    1    4      ar
     4    1    8       1
     5    5    6      ar
     6    5    7      ar
     7    5    8       1
     8    5    9       1
     9    9   10       1
    10   10   11       1
    11   11   12       1
    12   11   13       1
    13   12   17       1
    14   13   14       1
    15   13   15       1
    16   15   16       1
    17   15   17       1
    18   17   18       1
    19   18   19       1
    20   18   27       1
    21   19   20       2
    22   20   21       1
    23   21   22      ar
    24   21   27      ar
    25   22   23       1
    26   22   24      ar
    27   24   25      ar
    28   25   26      ar
    29   26   27      ar
    30   25   39       1
    31   23   38       1
    32   23   37       1
    33   10   28       1
    34   10   29       1
    35   11   30       1
    36   13   31       1
    37   14   32       1
    38   15   33       1
    39   16   34       1
    40   17   35       1
    41   19   36       1
@<TRIPOS>SUBSTRUCTURE
     1 ADP302      1 GROUP             4 B     ADP     0 **** ADP B 302
