#    Name: 43573
#    Modification time : Tue Aug  8 20:18:08 2017

@<TRIPOS>MOLECULE
43573
   30     0     9     0     0
SMALL
NO_CHARGES


@<TRIPOS>ATOM
      1 N           3.7360    2.9960   24.7620 N.am      1 SEL1        0.0000 
      2 O           3.2890    4.0610   23.9630 O.2       2 ALL2        0.0000 
      3 CA          9.2900    3.4580   24.3610 C.3       3 GLL5        0.0000 
      4 CA          7.3540    2.5910   25.6880 C.3       3 GLL5        0.0000 
      5 CA          7.6730    0.7900   27.2720 C.3       3 GLL5        0.0000 
      6 CA          5.4260    1.3740   26.5940 C.3       3 GLL5        0.0000 
      7 CA          4.3310   -0.6890   28.3610 C.3       3 GLL5        0.0000 
      8 CA          2.9990   -8.4420   29.2780 C.3       3 GLL5        0.0000 
      9 CA          6.6030   -1.2370   29.0130 C.3       3 GLL5        0.0000 
     10 N           0.9920    1.6070   24.4820 N.am      4 SEP1        0.0000 
     11 O           0.9540    5.1220   23.5980 O.2       5 ALP2        0.0000 
     12 CA          7.1410    0.0140   22.8670 C.3       6 GLP5        0.0000 
     13 CA          7.2970    5.5840   28.8220 C.3       6 GLP5        0.0000 
     14 CA          6.0240    2.4350   30.7710 C.3       6 GLP5        0.0000 
     15 CA          1.4130    2.4770   28.1100 C.3       6 GLP5        0.0000 
     16 CA         -0.2620   -6.9020   26.7710 C.3       6 GLP5        0.0000 
     17 CA          4.7220    2.6280   30.0290 C.3       6 GLP5        0.0000 
     18 CA          6.0140    1.2810   31.7910 C.3       6 GLP5        0.0000 
     19 N           2.3640    2.3015   24.6220 N.am      7 SEC1        0.0000 
     20 O           2.1215    4.5915   23.7805 O.2       8 ALC2        0.0000 
     21 CA          8.2155    1.7360   23.6140 C.3       9 GLC5        0.0000 
     22 CA          7.3255    4.0875   27.2550 C.3       9 GLC5        0.0000 
     23 CA          6.8485    1.6125   29.0215 C.3       9 GLC5        0.0000 
     24 CA          3.4195    1.9255   27.3520 C.3       9 GLC5        0.0000 
     25 CA          2.8720    0.8940   28.2355 C.3       9 GLC5        0.0000 
     26 CA          1.3685   -7.6720   28.0245 C.3       9 GLC5        0.0000 
     27 CA          5.3154    2.1510   28.2018 C.3       9 GLC5        0.0000 
     28 CA          6.0151   -0.2483   30.6294 C.3       9 GLC5        0.0000 
     29 CA          7.0255    1.0353   24.4929 C.3       9 GLC5        0.0000 
     30 CA          4.6737    0.9394   29.2312 C.3       9 GLC5        0.0000 
@<TRIPOS>BOND
@<TRIPOS>SUBSTRUCTURE
     1 SEL1        1 GROUP        1 Z    SEL  0     ROOT SEL Z 0
     2 ALL2        2 GROUP        1 Z    ALL  0     **** ALL Z 1
     3 GLL5        3 GROUP        1 Z    GLL  0     **** GLL Z 4
     4 SEP1       10 GROUP        1 Z    SEP  0     **** SEP Z 7
     5 ALP2       11 GROUP        1 Z    ALP  0     **** ALP Z 8
     6 GLP5       12 GROUP        1 Z    GLP  0     **** GLP Z 11
     7 SEC1       19 GROUP        1 Z    SEC  0     **** SEC Z 14
     8 ALC2       20 GROUP        1 Z    ALC  0     **** ALC Z 15
     9 GLC5       21 GROUP        1 Z    GLC  0     **** GLC Z 18
@<TRIPOS>SET

