4i4e_1BQ_1_ligand
  -OEChem-08111718373D

 59 63  0     1  0  0  0  0  0999 V2000
    3.6969   -0.1331   27.8235 H   0  0  0  0  0  0  0  0  0  0  0  0
    7.5884   -1.0837   28.9393 H   0  0  0  0  0  0  0  0  0  0  0  0
    8.2891    0.2232   27.8189 H   0  0  0  0  0  0  0  0  0  0  0  0
    2.8539   -1.8160   29.2976 H   0  0  0  0  0  0  0  0  0  0  0  0
    6.7523   -2.7320   30.4348 H   0  0  0  0  0  0  0  0  0  0  0  0
    9.1911    1.9119   26.4198 H   0  0  0  0  0  0  0  0  0  0  0  0
    4.4364    1.2366   26.6373 H   0  0  0  0  0  0  0  0  0  0  0  0
    4.2531    5.7448   23.2212 H   0  0  0  0  0  0  0  0  0  0  0  0
    2.3525   -6.6040   31.0211 H   0  0  0  0  0  0  0  0  0  0  0  0
    3.2553   -7.6498   31.8917 H   0  0  0  0  0  0  0  0  0  0  0  0
    3.3801   -5.7799   28.7543 H   0  0  0  0  0  0  0  0  0  0  0  0
    4.6069   -6.6442   28.1103 H   0  0  0  0  0  0  0  0  0  0  0  0
    3.4732   -5.2399   32.4649 H   0  0  0  0  0  0  0  0  0  0  0  0
    4.8612   -6.0875   32.3167 H   0  0  0  0  0  0  0  0  0  0  0  0
    6.0418   -5.8516   29.9068 H   0  0  0  0  0  0  0  0  0  0  0  0
    5.4960   -4.6142   28.9917 H   0  0  0  0  0  0  0  0  0  0  0  0
    4.7886   -7.8777   30.1652 H   0  0  0  0  0  0  0  0  0  0  0  0
    9.5194    4.2575   23.8059 H   0  0  0  0  0  0  0  0  0  0  0  0
    9.9272    3.3913   25.1288 H   0  0  0  0  0  0  0  0  0  0  0  0
    9.3562    2.6327   23.8001 H   0  0  0  0  0  0  0  0  0  0  0  0
    2.8002   -8.1746   28.3352 H   0  0  0  0  0  0  0  0  0  0  0  0
    2.1439   -8.5140   29.7914 H   0  0  0  0  0  0  0  0  0  0  0  0
    3.1128  -10.5167   29.5077 H   0  0  0  0  0  0  0  0  0  0  0  0
    4.4630   -9.7448   30.0056 H   0  0  0  0  0  0  0  0  0  0  0  0
    2.3598    4.1688   23.6094 H   0  0  0  0  0  0  0  0  0  0  0  0
    4.3974  -10.9507   27.8291 H   0  0  0  0  0  0  0  0  0  0  0  0
    4.3310   -0.6890   28.3610 C   0  0  0  0  0  0  0  0  0  0  0  0
    6.6030   -1.2370   29.0130 C   0  0  0  0  0  0  0  0  0  0  0  0
    7.6730    0.7900   27.2720 C   0  0  0  0  0  0  0  0  0  0  0  0
    3.8390   -1.6640   29.2170 C   0  0  0  0  0  0  0  0  0  0  0  0
    6.1170   -2.2000   29.8750 C   0  0  0  0  0  0  0  0  0  0  0  0
    8.2010    1.7770   26.4590 C   0  0  0  0  0  0  0  0  0  0  0  0
    5.4260    1.3740   26.5940 C   0  0  0  0  0  0  0  0  0  0  0  0
    4.2890    4.8980   23.7520 C   0  0  0  0  0  0  0  0  0  0  0  0
    5.7200   -0.4780   28.2450 C   0  0  0  0  0  0  0  0  0  0  0  0
    6.2810    0.5680   27.3440 C   0  0  0  0  0  0  0  0  0  0  0  0
    5.9640    2.3770   25.7800 C   0  0  0  0  0  0  0  0  0  0  0  0
    4.7420   -2.4360   29.9700 C   0  0  0  0  0  0  0  0  0  0  0  0
    7.3540    2.5910   25.6880 C   0  0  0  0  0  0  0  0  0  0  0  0
    5.3860    4.3870   24.3980 C   0  0  0  0  0  0  0  0  0  0  0  0
    5.0340    3.1940   25.0070 C   0  0  0  0  0  0  0  0  0  0  0  0
    4.2970   -3.4650   30.9370 C   0  0  0  0  0  0  0  0  0  0  0  0
    3.2840   -6.9060   31.2240 C   0  0  2  0  0  0  0  0  0  0  0  0
    4.2230   -6.2780   28.9580 C   0  0  1  0  0  0  0  0  0  0  0  0
    4.0670   -5.7290   31.8260 C   0  0  1  0  0  0  0  0  0  0  0  0
    5.2290   -5.3440   29.6210 C   0  0  1  0  0  0  0  0  0  0  0  0
    3.9280   -7.4240   29.9340 C   0  0  2  0  0  0  0  0  0  0  0  0
    9.2900    3.4580   24.3610 C   0  0  0  0  0  0  0  0  0  0  0  0
    2.9990   -8.4420   29.2780 C   0  0  2  0  0  0  0  0  0  0  0  0
    3.7490   -9.7720   29.3060 C   0  0  2  0  0  0  0  0  0  0  0  0
    3.7360    2.9960   24.7620 N   0  0  0  0  0  0  0  0  0  0  0  0
    3.2890    4.0610   23.9630 N   0  0  0  0  0  0  0  0  0  0  0  0
    7.9180    3.5940   24.8730 N   0  0  3  0  0  0  0  0  0  0  0  0
    4.5330   -4.7850   30.7920 N   0  0  0  0  0  0  0  0  0  0  0  0
    3.7140   -3.0740   31.9320 O   0  0  0  0  0  0  0  0  0  0  0  0
    7.1160    5.8300   25.6570 O   0  0  0  0  0  0  0  0  0  0  0  0
    7.3800    5.4510   23.2180 O   0  0  0  0  0  0  0  0  0  0  0  0
    4.3370   -9.9710   28.0200 O   0  0  0  0  0  0  0  0  0  0  0  0
    7.0420    4.9810   24.5140 S   0  0  2  0  0  0  0  0  0  0  0  0
  1 27  1  0  0  0  0
  2 28  1  0  0  0  0
  3 29  1  0  0  0  0
  4 30  1  0  0  0  0
  5 31  1  0  0  0  0
  6 32  1  0  0  0  0
  7 33  1  0  0  0  0
  8 34  1  0  0  0  0
  9 43  1  0  0  0  0
 10 43  1  0  0  0  0
 11 44  1  0  0  0  0
 12 44  1  0  0  0  0
 13 45  1  0  0  0  0
 14 45  1  0  0  0  0
 15 46  1  0  0  0  0
 16 46  1  0  0  0  0
 17 47  1  0  0  0  0
 18 48  1  0  0  0  0
 19 48  1  0  0  0  0
 20 48  1  0  0  0  0
 21 49  1  0  0  0  0
 22 49  1  0  0  0  0
 23 50  1  0  0  0  0
 24 50  1  0  0  0  0
 25 52  1  0  0  0  0
 26 58  1  0  0  0  0
 27 30  1  0  0  0  0
 27 35  2  0  0  0  0
 28 31  2  0  0  0  0
 28 35  1  0  0  0  0
 29 32  1  0  0  0  0
 29 36  2  0  0  0  0
 30 38  2  0  0  0  0
 31 38  1  0  0  0  0
 32 39  2  0  0  0  0
 33 36  1  0  0  0  0
 33 37  2  0  0  0  0
 34 40  2  0  0  0  0
 34 52  1  0  0  0  0
 35 36  1  0  0  0  0
 37 39  1  0  0  0  0
 37 41  1  0  0  0  0
 38 42  1  0  0  0  0
 39 53  1  0  0  0  0
 40 41  1  0  0  0  0
 40 59  1  0  0  0  0
 41 51  2  0  0  0  0
 42 54  1  0  0  0  0
 42 55  2  0  0  0  0
 43 45  1  0  0  0  0
 43 47  1  0  0  0  0
 44 46  1  0  0  0  0
 44 47  1  0  0  0  0
 45 54  1  0  0  0  0
 46 54  1  0  0  0  0
 47 49  1  0  0  0  0
 48 53  1  0  0  0  0
 49 50  1  0  0  0  0
 50 58  1  0  0  0  0
 51 52  1  0  0  0  0
 53 59  1  0  0  0  0
 56 59  2  0  0  0  0
 57 59  2  0  0  0  0
M  END
> <scpdb_id>
4i4e_1

$$$$
