@<TRIPOS>MOLECULE
4i4e_1BQ_1_ligand
   59    63     1     0     0
SMALL
NO_CHARGES


@<TRIPOS>ATOM
     1 C1           9.2900     3.4580    24.3610 C.3          1 1BQ1000   0.0000
     2 N2           7.9180     3.5940    24.8730 N.pl3        1 1BQ1000   0.0000
     3 C3           7.3540     2.5910    25.6880 C.ar         1 1BQ1000   0.0000
     4 C4           8.2010     1.7770    26.4590 C.ar         1 1BQ1000   0.0000
     5 C5           7.6730     0.7900    27.2720 C.ar         1 1BQ1000   0.0000
     6 C6           6.2810     0.5680    27.3440 C.ar         1 1BQ1000   0.0000
     7 C7           5.4260     1.3740    26.5940 C.ar         1 1BQ1000   0.0000
     8 C8           5.9640     2.3770    25.7800 C.ar         1 1BQ1000   0.0000
     9 C9           5.0340     3.1940    25.0070 C.2          1 1BQ1000   0.0000
    10 N10          3.7360     2.9960    24.7620 N.2          1 1BQ1000   0.0000
    11 N12          3.2890     4.0610    23.9630 N.pl3        1 1BQ1000   0.0000
    12 C13          4.2890     4.8980    23.7520 C.2          1 1BQ1000   0.0000
    13 C14          5.3860     4.3870    24.3980 C.2          1 1BQ1000   0.0000
    14 S15          7.0420     4.9810    24.5140 S.o2         1 1BQ1000   0.0000
    15 O16          7.1160     5.8300    25.6570 O.2          1 1BQ1000   0.0000
    16 O17          7.3800     5.4510    23.2180 O.2          1 1BQ1000   0.0000
    17 C18          5.7200    -0.4780    28.2450 C.ar         1 1BQ1000   0.0000
    18 C19          4.3310    -0.6890    28.3610 C.ar         1 1BQ1000   0.0000
    19 C20          3.8390    -1.6640    29.2170 C.ar         1 1BQ1000   0.0000
    20 C21          4.7420    -2.4360    29.9700 C.ar         1 1BQ1000   0.0000
    21 C22          6.1170    -2.2000    29.8750 C.ar         1 1BQ1000   0.0000
    22 C23          6.6030    -1.2370    29.0130 C.ar         1 1BQ1000   0.0000
    23 C24          4.2970    -3.4650    30.9370 C.2          1 1BQ1000   0.0000
    24 O25          3.7140    -3.0740    31.9320 O.2          1 1BQ1000   0.0000
    25 N26          4.5330    -4.7850    30.7920 N.am         1 1BQ1000   0.0000
    26 C27          4.0670    -5.7290    31.8260 C.3          1 1BQ1000   0.0000
    27 C28          3.2840    -6.9060    31.2240 C.3          1 1BQ1000   0.0000
    28 C29          3.9280    -7.4240    29.9340 C.3          1 1BQ1000   0.0000
    29 C30          2.9990    -8.4420    29.2780 C.3          1 1BQ1000   0.0000
    30 C31          3.7490    -9.7720    29.3060 C.3          1 1BQ1000   0.0000
    31 O32          4.3370    -9.9710    28.0200 O.3          1 1BQ1000   0.0000
    32 C33          4.2230    -6.2780    28.9580 C.3          1 1BQ1000   0.0000
    33 C34          5.2290    -5.3440    29.6210 C.3          1 1BQ1000   0.0000
    34 H1           9.5194     4.2575    23.8059 H            1 1BQ1000   0.0000
    35 H2           9.9272     3.3913    25.1288 H            1 1BQ1000   0.0000
    36 H3           9.3562     2.6327    23.8001 H            1 1BQ1000   0.0000
    37 H4           9.1911     1.9119    26.4198 H            1 1BQ1000   0.0000
    38 H5           8.2891     0.2232    27.8189 H            1 1BQ1000   0.0000
    39 H6           4.4364     1.2366    26.6373 H            1 1BQ1000   0.0000
    40 H7           4.2531     5.7448    23.2212 H            1 1BQ1000   0.0000
    41 H8           3.6969    -0.1331    27.8235 H            1 1BQ1000   0.0000
    42 H9           2.8539    -1.8160    29.2976 H            1 1BQ1000   0.0000
    43 H10          6.7523    -2.7320    30.4348 H            1 1BQ1000   0.0000
    44 H11          7.5884    -1.0837    28.9393 H            1 1BQ1000   0.0000
    45 H12          3.4732    -5.2399    32.4649 H            1 1BQ1000   0.0000
    46 H13          4.8612    -6.0875    32.3167 H            1 1BQ1000   0.0000
    47 H14          2.3525    -6.6040    31.0211 H            1 1BQ1000   0.0000
    48 H15          3.2553    -7.6498    31.8917 H            1 1BQ1000   0.0000
    49 H16          4.7886    -7.8777    30.1652 H            1 1BQ1000   0.0000
    50 H17          2.8002    -8.1746    28.3352 H            1 1BQ1000   0.0000
    51 H18          2.1439    -8.5140    29.7914 H            1 1BQ1000   0.0000
    52 H19          3.1128   -10.5167    29.5077 H            1 1BQ1000   0.0000
    53 H20          4.4630    -9.7448    30.0056 H            1 1BQ1000   0.0000
    54 H21          4.3974   -10.9507    27.8291 H            1 1BQ1000   0.0000
    55 H22          3.3801    -5.7799    28.7543 H            1 1BQ1000   0.0000
    56 H23          4.6069    -6.6442    28.1103 H            1 1BQ1000   0.0000
    57 H24          6.0418    -5.8516    29.9068 H            1 1BQ1000   0.0000
    58 H25          5.4960    -4.6142    28.9917 H            1 1BQ1000   0.0000
    59 H26          2.3598     4.1688    23.6094 H            1 1BQ1000   0.0000
@<TRIPOS>BOND
     1    1    2       1
     2    2    3       1
     3    2   14       1
     4    3    4      ar
     5    3    8      ar
     6    4    5      ar
     7    5    6      ar
     8    6    7      ar
     9    6   17       1
    10    7    8      ar
    11    8    9       1
    12    9   10       2
    13    9   13       1
    14   10   11       1
    15   11   12       1
    16   12   13       2
    17   13   14       1
    18   14   15       2
    19   14   16       2
    20   17   18      ar
    21   17   22      ar
    22   18   19      ar
    23   19   20      ar
    24   20   21      ar
    25   20   23       1
    26   21   22      ar
    27   23   24       2
    28   23   25      am
    29   25   26       1
    30   25   33       1
    31   26   27       1
    32   27   28       1
    33   28   29       1
    34   28   32       1
    35   29   30       1
    36   30   31       1
    37   32   33       1
    38    1   34       1
    39    1   35       1
    40    1   36       1
    41    4   37       1
    42    5   38       1
    43    7   39       1
    44   33   58       1
    45   12   40       1
    46   18   41       1
    47   19   42       1
    48   21   43       1
    49   22   44       1
    50   26   45       1
    51   26   46       1
    52   27   47       1
    53   27   48       1
    54   28   49       1
    55   29   50       1
    56   29   51       1
    57   30   52       1
    58   30   53       1
    59   31   54       1
    60   32   55       1
    61   32   56       1
    62   33   57       1
    63   11   59       1
@<TRIPOS>SUBSTRUCTURE
     1 1BQ1000     1 GROUP             4 A     1BQ     0 **** 1BQ A1000
