#    Name: 19858
#    Modification time : Tue Aug  8 23:13:23 2017

@<TRIPOS>MOLECULE
19858
   32     0     6     0     0
SMALL
NO_CHARGES


@<TRIPOS>ATOM
      1 O           2.8350   28.9080   -6.4340 O.2       1 ALL2        0.0000 
      2 O           2.0960   26.9230   -7.3760 O.2       1 ALL2        0.0000 
      3 O           2.7600   27.0000   -2.8230 O.2       1 ALL2        0.0000 
      4 CA          3.6610   29.8930   -2.9510 C.3       2 GLL5        0.0000 
      5 CA          2.2270   34.7000   -3.7240 C.3       2 GLL5        0.0000 
      6 CA          0.2650   34.4760   -0.0070 C.3       2 GLL5        0.0000 
      7 CA          0.9620   29.8490    1.4450 C.3       2 GLL5        0.0000 
      8 O           2.5960   28.3370   -9.7650 O.2       3 ALP2        0.0000 
      9 O           3.0520   30.2340   -8.7590 O.2       3 ALP2        0.0000 
     10 O           2.4980   23.7840   -3.0010 O.2       3 ALP2        0.0000 
     11 CA          7.0850   32.0250   -3.3800 C.3       4 GLP5        0.0000 
     12 CA          6.3950   28.2030   -1.3690 C.3       4 GLP5        0.0000 
     13 CA          6.1600   33.9320   -4.7330 C.3       4 GLP5        0.0000 
     14 CA         -0.8580   33.7370   -5.1750 C.3       4 GLP5        0.0000 
     15 CA         -0.9740   35.1450    3.3210 C.3       4 GLP5        0.0000 
     16 CA         -1.6750   28.6040   -1.8650 C.3       4 GLP5        0.0000 
     17 CA          3.2670   28.6700    3.7830 C.3       4 GLP5        0.0000 
     18 CA         -0.5920   32.1280    4.0590 C.3       4 GLP5        0.0000 
     19 CA         -0.3710   26.1430    2.1280 C.3       4 GLP5        0.0000 
     20 O           2.7155   28.6225   -8.0995 O.2       5 ALC2        0.0000 
     21 O           2.9435   29.5710   -7.5965 O.2       5 ALC2        0.0000 
     22 O           2.3460   27.6300   -8.5705 O.2       5 ALC2        0.0000 
     23 O           2.6290   25.3920   -2.9120 O.2       5 ALC2        0.0000 
     24 CA          5.3730   30.9590   -3.1655 C.3       6 GLC5        0.0000 
     25 CA          5.0280   29.0480   -2.1600 C.3       6 GLC5        0.0000 
     26 CA          4.1935   34.3160   -4.2285 C.3       6 GLC5        0.0000 
     27 CA          0.6845   34.2185   -4.4495 C.3       6 GLC5        0.0000 
     28 CA         -0.3545   34.8105    1.6570 C.3       6 GLC5        0.0000 
     29 CA         -0.3565   29.2265   -0.2100 C.3       6 GLC5        0.0000 
     30 CA          2.1145   29.2595    2.6140 C.3       6 GLC5        0.0000 
     31 CA          0.1850   30.9885    2.7520 C.3       6 GLC5        0.0000 
     32 CA          0.2955   27.9960    1.7865 C.3       6 GLC5        0.0000 
@<TRIPOS>BOND
@<TRIPOS>SUBSTRUCTURE
     1 ALL2        1 GROUP        1 Z    ALL  0     ROOT ALL Z 1
     2 GLL5        4 GROUP        1 Z    GLL  0     **** GLL Z 4
     3 ALP2        8 GROUP        1 Z    ALP  0     **** ALP Z 8
     4 GLP5       11 GROUP        1 Z    GLP  0     **** GLP Z 11
     5 ALC2       20 GROUP        1 Z    ALC  0     **** ALC Z 15
     6 GLC5       24 GROUP        1 Z    GLC  0     **** GLC Z 18
@<TRIPOS>SET

