@<TRIPOS>MOLECULE
2w3a_TOP_1_ligand
   40    41     1     0     0
SMALL
NO_CHARGES


@<TRIPOS>ATOM
     1 C1           3.2070    29.6150    -5.3640 C.ar         1 TOP1190   0.0000
     2 N2           2.8350    28.9080    -6.4340 N.ar         1 TOP1190   1.0000
     3 C3           2.4540    27.6170    -6.2960 C.ar         1 TOP1190   0.0000
     4 N4           2.0960    26.9230    -7.3760 N.pl3        1 TOP1190   0.0000
     5 N5           2.4460    26.9840    -5.1190 N.ar         1 TOP1190   0.0000
     6 C6           2.7840    27.6350    -3.9920 C.ar         1 TOP1190   0.0000
     7 N7           2.7600    27.0000    -2.8230 N.pl3        1 TOP1190   0.0000
     8 C8           3.2030    29.0410    -4.1140 C.ar         1 TOP1190   0.0000
     9 C9           3.6610    29.8930    -2.9510 C.3          1 TOP1190   0.0000
    10 C10          2.6190    30.7790    -2.3500 C.ar         1 TOP1190   0.0000
    11 C11          2.4010    32.0210    -2.9350 C.ar         1 TOP1190   0.0000
    12 C12          1.4370    32.8680    -2.4030 C.ar         1 TOP1190   0.0000
    13 O13          1.1950    34.0920    -2.9590 O.3          1 TOP1190   0.0000
    14 C14          2.2270    34.7000    -3.7240 C.3          1 TOP1190   0.0000
    15 C15          0.6680    32.4590    -1.2040 C.ar         1 TOP1190   0.0000
    16 O16         -0.2540    33.3240    -0.6750 O.3          1 TOP1190   0.0000
    17 C17          0.2650    34.4760    -0.0070 C.3          1 TOP1190   0.0000
    18 C18          0.9680    31.1400    -0.6050 C.ar         1 TOP1190   0.0000
    19 O19          0.3150    30.7250     0.5190 O.3          1 TOP1190   0.0000
    20 C20          0.9620    29.8490     1.4450 C.3          1 TOP1190   0.0000
    21 C21          1.9370    30.3440    -1.2050 C.ar         1 TOP1190   0.0000
    22 H1           3.4903    30.5679    -5.4722 H            1 TOP1190   0.0000
    23 H2           1.8127    25.9682    -7.2856 H            1 TOP1190   0.0000
    24 H3           2.1107    27.3570    -8.2768 H            1 TOP1190   0.0000
    25 H4           3.0115    27.4849    -1.9854 H            1 TOP1190   0.0000
    26 H5           2.4905    26.0379    -2.7821 H            1 TOP1190   0.0000
    27 H6           4.4106    30.4726    -3.2707 H            1 TOP1190   0.0000
    28 H7           3.9952    29.2811    -2.2342 H            1 TOP1190   0.0000
    29 H8           2.9341    32.3026    -3.7328 H            1 TOP1190   0.0000
    30 H9           1.9111    35.5849    -4.0662 H            1 TOP1190   0.0000
    31 H10          3.0338    34.8339    -3.1485 H            1 TOP1190   0.0000
    32 H11          2.4623    34.1090    -4.4956 H            1 TOP1190   0.0000
    33 H12         -0.4922    35.0317     0.3363 H            1 TOP1190   0.0000
    34 H13          0.8399    34.1867     0.7584 H            1 TOP1190   0.0000
    35 H14          0.8105    35.0156    -0.6483 H            1 TOP1190   0.0000
    36 H15          0.3421    29.6495     2.2039 H            1 TOP1190   0.0000
    37 H16          1.2074    28.9972     0.9823 H            1 TOP1190   0.0000
    38 H17          1.7891    30.2876     1.7966 H            1 TOP1190   0.0000
    39 H18          2.1506    29.4486    -0.8144 H            1 TOP1190   0.0000
    40 H19          2.8380    29.3334    -7.3390 H            1 TOP1190   0.0000
@<TRIPOS>BOND
     1    1    2      ar
     2    1    8      ar
     3    2    3      ar
     4    3    4       1
     5    3    5      ar
     6    5    6      ar
     7    6    7       1
     8    6    8      ar
     9    8    9       1
    10    9   10       1
    11   10   11      ar
    12   10   21      ar
    13   11   12      ar
    14   12   13       1
    15   12   15      ar
    16   13   14       1
    17   15   16       1
    18   15   18      ar
    19   16   17       1
    20   18   19       1
    21   18   21      ar
    22   19   20       1
    23    1   22       1
    24    4   23       1
    25    4   24       1
    26    7   25       1
    27    7   26       1
    28    9   27       1
    29    9   28       1
    30   11   29       1
    31   14   30       1
    32   14   31       1
    33   14   32       1
    34   17   33       1
    35   17   34       1
    36   17   35       1
    37   20   36       1
    38   20   37       1
    39   20   38       1
    40   21   39       1
    41    2   40       1
@<TRIPOS>SUBSTRUCTURE
     1 TOP1190     1 GROUP             4 A     TOP     0 **** TOP A1190
