2w3a_TOP_1_ligand
  -OEChem-08111718373D

 39 40  0     1  0  0  0  0  0999 V2000
    2.9341   32.3026   -3.7328 H   0  0  0  0  0  0  0  0  0  0  0  0
    2.1506   29.4486   -0.8144 H   0  0  0  0  0  0  0  0  0  0  0  0
    3.4903   30.5679   -5.4722 H   0  0  0  0  0  0  0  0  0  0  0  0
    1.9111   35.5849   -4.0662 H   0  0  0  0  0  0  0  0  0  0  0  0
    3.0338   34.8339   -3.1485 H   0  0  0  0  0  0  0  0  0  0  0  0
    2.4623   34.1090   -4.4956 H   0  0  0  0  0  0  0  0  0  0  0  0
    0.3421   29.6495    2.2039 H   0  0  0  0  0  0  0  0  0  0  0  0
    1.2074   28.9972    0.9823 H   0  0  0  0  0  0  0  0  0  0  0  0
    1.7891   30.2876    1.7966 H   0  0  0  0  0  0  0  0  0  0  0  0
   -0.4922   35.0317    0.3363 H   0  0  0  0  0  0  0  0  0  0  0  0
    0.8399   34.1867    0.7584 H   0  0  0  0  0  0  0  0  0  0  0  0
    0.8105   35.0156   -0.6483 H   0  0  0  0  0  0  0  0  0  0  0  0
    4.4106   30.4726   -3.2707 H   0  0  0  0  0  0  0  0  0  0  0  0
    3.9952   29.2811   -2.2342 H   0  0  0  0  0  0  0  0  0  0  0  0
    3.0115   27.4849   -1.9854 H   0  0  0  0  0  0  0  0  0  0  0  0
    2.4905   26.0379   -2.7821 H   0  0  0  0  0  0  0  0  0  0  0  0
    1.8127   25.9682   -7.2856 H   0  0  0  0  0  0  0  0  0  0  0  0
    2.1107   27.3570   -8.2768 H   0  0  0  0  0  0  0  0  0  0  0  0
    2.4010   32.0210   -2.9350 C   0  0  0  0  0  0  0  0  0  0  0  0
    1.9370   30.3440   -1.2050 C   0  0  0  0  0  0  0  0  0  0  0  0
    3.2070   29.6150   -5.3640 C   0  0  0  0  0  0  0  0  0  0  0  0
    2.6190   30.7790   -2.3500 C   0  0  0  0  0  0  0  0  0  0  0  0
    3.2030   29.0410   -4.1140 C   0  0  0  0  0  0  0  0  0  0  0  0
    1.4370   32.8680   -2.4030 C   0  0  0  0  0  0  0  0  0  0  0  0
    0.9680   31.1400   -0.6050 C   0  0  0  0  0  0  0  0  0  0  0  0
    0.6680   32.4590   -1.2040 C   0  0  0  0  0  0  0  0  0  0  0  0
    2.7840   27.6350   -3.9920 C   0  0  0  0  0  0  0  0  0  0  0  0
    2.4540   27.6170   -6.2960 C   0  0  0  0  0  0  0  0  0  0  0  0
    2.2270   34.7000   -3.7240 C   0  0  0  0  0  0  0  0  0  0  0  0
    0.9620   29.8490    1.4450 C   0  0  0  0  0  0  0  0  0  0  0  0
    0.2650   34.4760   -0.0070 C   0  0  0  0  0  0  0  0  0  0  0  0
    3.6610   29.8930   -2.9510 C   0  0  1  0  0  0  0  0  0  0  0  0
    2.4460   26.9840   -5.1190 N   0  0  0  0  0  0  0  0  0  0  0  0
    2.8350   28.9080   -6.4340 N   0  0  0  0  0  0  0  0  0  0  0  0
    2.7600   27.0000   -2.8230 N   0  0  0  0  0  0  0  0  0  0  0  0
    2.0960   26.9230   -7.3760 N   0  0  0  0  0  0  0  0  0  0  0  0
    1.1950   34.0920   -2.9590 O   0  0  0  0  0  0  0  0  0  0  0  0
    0.3150   30.7250    0.5190 O   0  0  0  0  0  0  0  0  0  0  0  0
   -0.2540   33.3240   -0.6750 O   0  0  0  0  0  0  0  0  0  0  0  0
  1 19  1  0  0  0  0
  2 20  1  0  0  0  0
  3 21  1  0  0  0  0
  4 29  1  0  0  0  0
  5 29  1  0  0  0  0
  6 29  1  0  0  0  0
  7 30  1  0  0  0  0
  8 30  1  0  0  0  0
  9 30  1  0  0  0  0
 10 31  1  0  0  0  0
 11 31  1  0  0  0  0
 12 31  1  0  0  0  0
 13 32  1  0  0  0  0
 14 32  1  0  0  0  0
 15 35  1  0  0  0  0
 16 35  1  0  0  0  0
 17 36  1  0  0  0  0
 18 36  1  0  0  0  0
 19 22  2  0  0  0  0
 19 24  1  0  0  0  0
 20 22  1  0  0  0  0
 20 25  2  0  0  0  0
 21 23  1  0  0  0  0
 21 34  2  0  0  0  0
 22 32  1  0  0  0  0
 23 27  2  0  0  0  0
 23 32  1  0  0  0  0
 24 26  2  0  0  0  0
 24 37  1  0  0  0  0
 25 26  1  0  0  0  0
 25 38  1  0  0  0  0
 26 39  1  0  0  0  0
 27 33  1  0  0  0  0
 27 35  1  0  0  0  0
 28 33  2  0  0  0  0
 28 34  1  0  0  0  0
 28 36  1  0  0  0  0
 29 37  1  0  0  0  0
 30 38  1  0  0  0  0
 31 39  1  0  0  0  0
M  END
> <scpdb_id>
2w3a_1

$$$$
