#    Name: 13098
#    Modification time : Tue Aug  8 20:28:43 2017

@<TRIPOS>MOLECULE
13098
   57     0     9     0     0
SMALL
NO_CHARGES


@<TRIPOS>ATOM
      1 N         -23.7280    1.3550  -79.4020 N.am      1 SEL1        0.0000 
      2 O         -21.9930    4.0930  -80.9770 O.2       2 ALL2        0.0000 
      3 CA        -20.0100    3.5660  -76.0510 C.3       3 GLL5        0.0000 
      4 CA        -19.7120    3.6850  -78.5110 C.3       3 GLL5        0.0000 
      5 CA        -20.5560    4.8950  -74.1350 C.3       3 GLL5        0.0000 
      6 CA        -22.2990    6.6480  -72.7180 C.3       3 GLL5        0.0000 
      7 CA        -21.8130    1.5410  -74.5810 C.3       3 GLL5        0.0000 
      8 CA        -23.7800    7.6270  -75.2530 C.3       3 GLL5        0.0000 
      9 CA        -18.0900    5.7610  -76.9320 C.3       3 GLL5        0.0000 
     10 CA        -21.1520    5.9930  -69.9420 C.3       3 GLL5        0.0000 
     11 CA        -20.6040    2.6160  -78.6630 C.3       3 GLL5        0.0000 
     12 CA        -21.2020    2.0030  -77.5490 C.3       3 GLL5        0.0000 
     13 CA        -19.4000    4.1770  -77.2430 C.3       3 GLL5        0.0000 
     14 CA        -21.5000    5.6480  -74.8450 C.3       3 GLL5        0.0000 
     15 CA        -20.4550    4.9870  -72.7420 C.3       3 GLL5        0.0000 
     16 CA        -21.2890    5.8340  -72.0120 C.3       3 GLL5        0.0000 
     17 N         -23.0780   -1.7550  -79.9720 N.am      4 SEP1        0.0000 
     18 O         -22.2340    5.9520  -78.9410 O.2       5 ALP2        0.0000 
     19 CA        -16.8590    1.1970  -74.5340 C.3       6 GLP5        0.0000 
     20 CA        -16.8920    5.5720  -81.2220 C.3       6 GLP5        0.0000 
     21 CA        -17.7450    7.9050  -72.9610 C.3       6 GLP5        0.0000 
     22 CA        -22.0000   11.1270  -72.7660 C.3       6 GLP5        0.0000 
     23 CA        -18.2870   -0.4920  -73.3410 C.3       6 GLP5        0.0000 
     24 CA        -24.5520    3.0040  -72.5490 C.3       6 GLP5        0.0000 
     25 CA        -21.0960    7.9100  -78.1130 C.3       6 GLP5        0.0000 
     26 CA        -14.7810    3.5640  -76.5210 C.3       6 GLP5        0.0000 
     27 CA        -15.7180    9.0310  -78.1900 C.3       6 GLP5        0.0000 
     28 CA        -24.7380    4.2670  -67.8720 C.3       6 GLP5        0.0000 
     29 CA        -18.7160    6.0190  -67.0680 C.3       6 GLP5        0.0000 
     30 CA        -17.4200    6.0780  -71.3150 C.3       6 GLP5        0.0000 
     31 CA        -23.8840    2.7330  -71.2040 C.3       6 GLP5        0.0000 
     32 CA        -19.4160   -0.8230  -78.0520 C.3       6 GLP5        0.0000 
     33 CA        -25.3450    4.3020  -72.5570 C.3       6 GLP5        0.0000 
     34 N         -23.4030   -0.2000  -79.6870 N.am      7 SEC1        0.0000 
     35 O         -22.1135    5.0225  -79.9590 O.2       8 ALC2        0.0000 
     36 CA        -18.4345    2.3815  -75.2925 C.3       9 GLC5        0.0000 
     37 CA        -18.3020    4.6285  -79.8665 C.3       9 GLC5        0.0000 
     38 CA        -19.1505    6.4000  -73.5480 C.3       9 GLC5        0.0000 
     39 CA        -22.1495    8.8875  -72.7420 C.3       9 GLC5        0.0000 
     40 CA        -20.0500    0.5245  -73.9610 C.3       9 GLC5        0.0000 
     41 CA        -23.1825    2.2725  -73.5650 C.3       9 GLC5        0.0000 
     42 CA        -22.4380    7.7685  -76.6830 C.3       9 GLC5        0.0000 
     43 CA        -16.4355    4.6625  -76.7265 C.3       9 GLC5        0.0000 
     44 CA        -16.9040    7.3960  -77.5610 C.3       9 GLC5        0.0000 
     45 CA        -19.5930    6.8355  -77.5225 C.3       9 GLC5        0.0000 
     46 CA        -17.4910    5.6665  -79.0770 C.3       9 GLC5        0.0000 
     47 CA        -22.9450    5.1300  -68.9070 C.3       9 GLC5        0.0000 
     48 CA        -19.9340    6.0060  -68.5050 C.3       9 GLC5        0.0000 
     49 CA        -19.2860    6.0355  -70.6285 C.3       9 GLC5        0.0000 
     50 CA        -22.5180    4.3630  -70.5730 C.3       9 GLC5        0.0000 
     51 CA        -20.0885    0.7688  -78.7063 C.3       9 GLC5        0.0000 
     52 CA        -20.1693    0.7751  -77.6155 C.3       9 GLC5        0.0000 
     53 CA        -20.3260    5.9205  -77.9950 C.3       9 GLC5        0.0000 
     54 CA        -21.5160    6.9968  -76.3152 C.3       9 GLC5        0.0000 
     55 CA        -23.8402    5.4428  -73.0055 C.3       9 GLC5        0.0000 
     56 CA        -19.1460    5.7443  -71.8460 C.3       9 GLC5        0.0000 
     57 CA        -22.3780    4.0717  -71.7905 C.3       9 GLC5        0.0000 
@<TRIPOS>BOND
@<TRIPOS>SUBSTRUCTURE
     1 SEL1        1 GROUP        1 Z    SEL  0     ROOT SEL Z 0
     2 ALL2        2 GROUP        1 Z    ALL  0     **** ALL Z 1
     3 GLL5        3 GROUP        1 Z    GLL  0     **** GLL Z 4
     4 SEP1       17 GROUP        1 Z    SEP  0     **** SEP Z 7
     5 ALP2       18 GROUP        1 Z    ALP  0     **** ALP Z 8
     6 GLP5       19 GROUP        1 Z    GLP  0     **** GLP Z 11
     7 SEC1       34 GROUP        1 Z    SEC  0     **** SEC Z 14
     8 ALC2       35 GROUP        1 Z    ALC  0     **** ALC Z 15
     9 GLC5       36 GROUP        1 Z    GLC  0     **** GLC Z 18
@<TRIPOS>SET

