2ceo_T44_2_ligand
  -OEChem-08111718373D

 34 35  0     1  0  0  0  0  0999 V2000
  -21.8290    1.2371  -77.6911 H   0  0  0  0  0  0  0  0  0  0  0  0
  -19.2944    4.0999  -79.3194 H   0  0  0  0  0  0  0  0  0  0  0  0
  -21.5501    5.5598  -75.8398 H   0  0  0  0  0  0  0  0  0  0  0  0
  -19.7729    4.4358  -72.2616 H   0  0  0  0  0  0  0  0  0  0  0  0
  -21.0134    1.1103  -80.0196 H   0  0  0  0  0  0  0  0  0  0  0  0
  -20.1591    2.3440  -80.6638 H   0  0  0  0  0  0  0  0  0  0  0  0
  -22.4194    2.2055  -81.4772 H   0  0  0  0  0  0  0  0  0  0  0  0
  -22.2127    4.6683  -80.1891 H   0  0  0  0  0  0  0  0  0  0  0  0
  -22.5823    4.3414  -81.7458 H   0  0  0  0  0  0  0  0  0  0  0  0
  -21.2020    2.0030  -77.5490 C   0  0  0  0  0  0  0  0  0  0  0  0
  -19.7120    3.6850  -78.5110 C   0  0  0  0  0  0  0  0  0  0  0  0
  -21.5000    5.6480  -74.8450 C   0  0  0  0  0  0  0  0  0  0  0  0
  -20.4550    4.9870  -72.7420 C   0  0  0  0  0  0  0  0  0  0  0  0
  -20.6040    2.6160  -78.6630 C   0  0  0  0  0  0  0  0  0  0  0  0
  -20.5560    4.8950  -74.1350 C   0  0  0  0  0  0  0  0  0  0  0  0
  -22.2990    6.6480  -72.7180 C   0  0  0  0  0  0  0  0  0  0  0  0
  -20.0100    3.5660  -76.0510 C   0  0  0  0  0  0  0  0  0  0  0  0
  -20.9420    2.4370  -76.2520 C   0  0  0  0  0  0  0  0  0  0  0  0
  -19.4000    4.1770  -77.2430 C   0  0  0  0  0  0  0  0  0  0  0  0
  -22.3720    6.5190  -74.1900 C   0  0  0  0  0  0  0  0  0  0  0  0
  -21.2890    5.8340  -72.0120 C   0  0  0  0  0  0  0  0  0  0  0  0
  -23.3790    2.5210  -79.6910 C   0  0  0  0  0  0  0  0  0  0  0  0
  -20.9180    2.1050  -80.0580 C   0  0  2  0  0  0  0  0  0  0  0  0
  -22.2080    2.6980  -80.6330 C   0  0  2  0  0  0  0  0  0  0  0  0
  -21.9930    4.0930  -80.9770 N   0  3  0  0  0  0  0  0  0  0  0  0
  -23.7280    1.3550  -79.4020 O   0  5  0  0  0  0  0  0  0  0  0  0
  -23.9710    3.5240  -79.2240 O   0  0  0  0  0  0  0  0  0  0  0  0
  -23.1260    7.4820  -72.0300 O   0  5  0  0  0  0  0  0  0  0  0  0
  -19.7080    4.0430  -74.8020 O   0  0  0  0  0  0  0  0  0  0  0  0
  -21.8130    1.5410  -74.5810 I   0  0  0  0  0  0  0  0  0  0  0  0
  -18.0900    5.7610  -76.9320 I   0  0  0  0  0  0  0  0  0  0  0  0
  -23.7800    7.6270  -75.2530 I   0  0  0  0  0  0  0  0  0  0  0  0
  -21.1520    5.9930  -69.9420 I   0  0  0  0  0  0  0  0  0  0  0  0
  -21.0360    4.2295  -81.2329 H   0  0  0  0  0  0  0  0  0  0  0  0
  1 10  1  0  0  0  0
  2 11  1  0  0  0  0
  3 12  1  0  0  0  0
  4 13  1  0  0  0  0
  5 23  1  0  0  0  0
  6 23  1  0  0  0  0
  7 24  1  0  0  0  0
  8 25  1  0  0  0  0
  9 25  1  0  0  0  0
 10 14  2  0  0  0  0
 10 18  1  0  0  0  0
 11 14  1  0  0  0  0
 11 19  2  0  0  0  0
 12 15  2  0  0  0  0
 12 20  1  0  0  0  0
 13 15  1  0  0  0  0
 13 21  2  0  0  0  0
 14 23  1  0  0  0  0
 15 29  1  0  0  0  0
 16 20  2  0  0  0  0
 16 21  1  0  0  0  0
 16 28  1  0  0  0  0
 17 18  2  0  0  0  0
 17 19  1  0  0  0  0
 17 29  1  0  0  0  0
 18 30  1  0  0  0  0
 19 31  1  0  0  0  0
 20 32  1  0  0  0  0
 21 33  1  0  0  0  0
 22 24  1  0  0  0  0
 22 26  1  0  0  0  0
 22 27  2  0  0  0  0
 23 24  1  0  0  0  0
 24 25  1  0  0  0  0
 25 34  1  0  0  0  0
M  CHG  3  25   1  28  -1  26  -1
M  END
> <scpdb_id>
2ceo_2

$$$$
