@<TRIPOS>MOLECULE
2ceo_T44_2_ligand
   35    36     1     0     0
SMALL
NO_CHARGES


@<TRIPOS>ATOM
     1 C1         -20.6040     2.6160   -78.6630 C.ar         1 T441395   0.0000
     2 C2         -21.2020     2.0030   -77.5490 C.ar         1 T441395   0.0000
     3 C3         -20.9420     2.4370   -76.2520 C.ar         1 T441395   0.0000
     4 C4         -20.0100     3.5660   -76.0510 C.ar         1 T441395   0.0000
     5 C5         -19.4000     4.1770   -77.2430 C.ar         1 T441395   0.0000
     6 C6         -19.7120     3.6850   -78.5110 C.ar         1 T441395   0.0000
     7 C7         -20.9180     2.1050   -80.0580 C.3          1 T441395   0.0000
     8 C8         -22.2080     2.6980   -80.6330 C.3          1 T441395   0.0000
     9 C9         -23.3790     2.5210   -79.6910 C.2          1 T441395   0.0000
    10 C1'        -20.5560     4.8950   -74.1350 C.ar         1 T441395   0.0000
    11 C2'        -21.5000     5.6480   -74.8450 C.ar         1 T441395   0.0000
    12 C3'        -22.3720     6.5190   -74.1900 C.ar         1 T441395   0.0000
    13 C4'        -22.2990     6.6480   -72.7180 C.ar         1 T441395   0.0000
    14 C5'        -21.2890     5.8340   -72.0120 C.ar         1 T441395   0.0000
    15 C6'        -20.4550     4.9870   -72.7420 C.ar         1 T441395   0.0000
    16 N8         -21.9930     4.0930   -80.9770 N.4          1 T441395   1.0000
    17 O4         -19.7080     4.0430   -74.8020 O.3          1 T441395   0.0000
    18 O4'        -23.1260     7.4820   -72.0300 O.3          1 T441395   0.0000
    19 O9         -23.9710     3.5240   -79.2240 O.co2        1 T441395   0.0000
    20 O10        -23.7280     1.3550   -79.4020 O.co2        1 T441395  -1.0000
    21 I3         -21.8130     1.5410   -74.5810 I            1 T441395   0.0000
    22 I3'        -23.7800     7.6270   -75.2530 I            1 T441395   0.0000
    23 I5         -18.0900     5.7610   -76.9320 I            1 T441395   0.0000
    24 I5'        -21.1520     5.9930   -69.9420 I            1 T441395   0.0000
    25 H1         -21.8290     1.2371   -77.6911 H            1 T441395   0.0000
    26 H2         -19.2944     4.0999   -79.3194 H            1 T441395   0.0000
    27 H3         -21.0134     1.1103   -80.0196 H            1 T441395   0.0000
    28 H4         -20.1591     2.3440   -80.6638 H            1 T441395   0.0000
    29 H5         -22.4194     2.2055   -81.4772 H            1 T441395   0.0000
    30 H2'        -21.5501     5.5598   -75.8398 H            1 T441395   0.0000
    31 H6'        -19.7729     4.4358   -72.2616 H            1 T441395   0.0000
    32 H8         -22.5823     4.3414   -81.7458 H            1 T441395   0.0000
    33 H9         -22.2127     4.6683   -80.1891 H            1 T441395   0.0000
    34 H4'        -23.0538     7.5487   -71.0348 H            1 T441395   0.0000
    35 H11        -21.0360     4.2295   -81.2329 H            1 T441395   0.0000
@<TRIPOS>BOND
     1    1    2      ar
     2    1    6      ar
     3    1    7       1
     4    2    3      ar
     5    3    4      ar
     6    3   21       1
     7    4    5      ar
     8    4   17       1
     9    5    6      ar
    10    5   23       1
    11    7    8       1
    12    8    9       1
    13    8   16       1
    14    9   19      ar
    15    9   20      ar
    16   10   11      ar
    17   10   15      ar
    18   10   17       1
    19   11   12      ar
    20   12   13      ar
    21   12   22       1
    22   13   14      ar
    23   13   18       1
    24   14   15      ar
    25   14   24       1
    26    2   25       1
    27    6   26       1
    28    7   27       1
    29    7   28       1
    30    8   29       1
    31   11   30       1
    32   15   31       1
    33   16   32       1
    34   16   33       1
    35   18   34       1
    36   16   35       1
@<TRIPOS>SUBSTRUCTURE
     1 T441395     1 GROUP             4 B     T44     0 **** T44 B1395
