#    Name: 18370
#    Modification time : Tue Aug  8 23:21:14 2017

@<TRIPOS>MOLECULE
18370
   65     0    15     0     0
SMALL
NO_CHARGES


@<TRIPOS>ATOM
      1 N          -4.7390    7.5750   17.5000 N.am      1 SEL1        0.0000 
      2 N          -4.5900   10.0220   17.7220 N.am      1 SEL1        0.0000 
      3 N          -3.2010    8.5480   19.1980 N.am      1 SEL1        0.0000 
      4 N          -7.8960   10.1080   18.7860 N.am      1 SEL1        0.0000 
      5 N          -7.7450    7.6250   18.0890 N.am      1 SEL1        0.0000 
      6 N         -10.1180    6.5260   19.9440 N.am      1 SEL1        0.0000 
      7 N          -7.7620    5.8400   20.8140 N.am      1 SEL1        0.0000 
      8 N         -10.5440    8.2040   24.7220 N.am      1 SEL1        0.0000 
      9 N         -17.0770    8.5920   23.1330 N.am      1 SEL1        0.0000 
     10 O         -16.5320    8.5570   25.3390 O.2       2 ALL2        0.0000 
     11 O         -16.0640    8.5040   27.6180 O.2       2 ALL2        0.0000 
     12 NZ         -4.5900   10.0220   17.7220 N.4       3 LYL3        0.0000 
     13 NZ         -7.8960   10.1080   18.7860 N.4       3 LYL3        0.0000 
     14 CA         -5.8090    8.5760   19.6970 C.3       4 GLL5        0.0000 
     15 CA         -8.6700    7.6970   23.2710 C.3       4 GLL5        0.0000 
     16 CA         -9.3020    7.5030   24.6490 C.3       4 GLL5        0.0000 
     17 CA         -9.5910    6.0710   24.9950 C.3       4 GLL5        0.0000 
     18 CA        -11.0670    5.8960   24.7360 C.3       4 GLL5        0.0000 
     19 Zn         -4.7390    7.5750   17.5000 Zn        5 ZIL7        0.0000 
     20 Zn         -7.7450    7.6250   18.0890 Zn        5 ZIL7        0.0000 
     21 N          -2.8000    5.6040   17.3100 N.am      6 SEP1        0.0000 
     22 N          -3.0300   11.3650   15.8540 N.am      6 SEP1        0.0000 
     23 N          -6.6180   11.6420   16.9260 N.am      6 SEP1        0.0000 
     24 N          -1.0790    9.1060   17.2410 N.am      6 SEP1        0.0000 
     25 N         -10.7730    9.5240   17.8390 N.am      6 SEP1        0.0000 
     26 N         -10.4650   10.6340   20.4090 N.am      6 SEP1        0.0000 
     27 N         -10.2660    6.9470   16.6740 N.am      6 SEP1        0.0000 
     28 N         -11.9650    5.2410   18.2440 N.am      6 SEP1        0.0000 
     29 N          -7.4950    3.0540   21.0220 N.am      6 SEP1        0.0000 
     30 N         -10.8130   11.1460   25.4270 N.am      6 SEP1        0.0000 
     31 N         -18.9520    5.9900   22.6800 N.am      6 SEP1        0.0000 
     32 O         -19.0300    9.7150   25.8590 O.2       7 ALP2        0.0000 
     33 O         -18.8560    8.9780   27.9540 O.2       7 ALP2        0.0000 
     34 NZ         -6.6180   11.6420   16.9260 N.4       8 LYP3        0.0000 
     35 CA         -4.7270    7.0870   23.1060 C.3       9 GLP5        0.0000 
     36 CA         -5.2620    5.8570   23.4860 C.3       9 GLP5        0.0000 
     37 CA         -5.5210    5.5750   24.8210 C.3       9 GLP5        0.0000 
     38 CA         -6.0940    4.2400   25.2670 C.3       9 GLP5        0.0000 
     39 CA        -12.2010    4.3490   21.4340 C.3       9 GLP5        0.0000 
     40 CA        -14.7300    4.2410   24.0230 C.3       9 GLP5        0.0000 
     41 Zn         -6.3630    6.5730   17.0150 Zn       10 ZIP7        0.0000 
     42 N          -3.7695    6.5895   17.4050 N.am     11 SEC1        0.0000 
     43 N          -3.8100   10.6935   16.7880 N.am     11 SEC1        0.0000 
     44 N          -5.6040   10.8320   17.3240 N.am     11 SEC1        0.0000 
     45 N          -2.1400    8.8270   18.2195 N.am     11 SEC1        0.0000 
     46 N          -9.3345    9.8160   18.3125 N.am     11 SEC1        0.0000 
     47 N          -7.2570   10.8750   17.8560 N.am     11 SEC1        0.0000 
     48 N          -9.1805   10.3710   19.5975 N.am     11 SEC1        0.0000 
     49 N          -9.0055    7.2860   17.3815 N.am     11 SEC1        0.0000 
     50 N         -11.0415    5.8835   19.0940 N.am     11 SEC1        0.0000 
     51 N          -7.6285    4.4470   20.9180 N.am     11 SEC1        0.0000 
     52 N         -10.6785    9.6750   25.0745 N.am     11 SEC1        0.0000 
     53 N         -18.0145    7.2910   22.9065 N.am     11 SEC1        0.0000 
     54 O         -17.7810    9.1360   25.5990 O.2      12 ALC2        0.0000 
     55 O         -17.4600    8.7410   27.7860 O.2      12 ALC2        0.0000 
     56 NZ         -5.6040   10.8320   17.3240 N.4      13 LYC3        0.0000 
     57 NZ         -7.2570   10.8750   17.8560 N.4      13 LYC3        0.0000 
     58 CA         -5.2680    7.8315   21.4015 C.3      14 GLC5        0.0000 
     59 CA         -6.9660    6.7770   23.3785 C.3      14 GLC5        0.0000 
     60 CA         -7.4115    6.5390   24.7350 C.3      14 GLC5        0.0000 
     61 CA         -7.8425    5.1555   25.1310 C.3      14 GLC5        0.0000 
     62 CA        -11.6340    5.1225   23.0850 C.3      14 GLC5        0.0000 
     63 CA        -13.0278    5.4153   24.4552 C.3      14 GLC5        0.0000 
     64 Zn         -5.5510    7.0740   17.2575 Zn       15 ZIC7        0.0000 
     65 Zn         -7.0540    7.0990   17.5520 Zn       15 ZIC7        0.0000 
@<TRIPOS>BOND
@<TRIPOS>SUBSTRUCTURE
     1 SEL1        1 GROUP        1 Z    SEL  0     ROOT SEL Z 0
     2 ALL2       10 GROUP        1 Z    ALL  0     **** ALL Z 1
     3 LYL3       12 GROUP        1 Z    LYL  0     **** LYL Z 2
     4 GLL5       14 GROUP        1 Z    GLL  0     **** GLL Z 4
     5 ZIL7       19 GROUP        1 Z    ZIL  0     **** ZIL Z 5
     6 SEP1       21 GROUP        1 Z    SEP  0     **** SEP Z 7
     7 ALP2       32 GROUP        1 Z    ALP  0     **** ALP Z 8
     8 LYP3       34 GROUP        1 Z    LYP  0     **** LYP Z 9
     9 GLP5       35 GROUP        1 Z    GLP  0     **** GLP Z 11
    10 ZIP7       41 GROUP        1 Z    ZIP  0     **** ZIP Z 12
    11 SEC1       42 GROUP        1 Z    SEC  0     **** SEC Z 14
    12 ALC2       54 GROUP        1 Z    ALC  0     **** ALC Z 15
    13 LYC3       56 GROUP        1 Z    LYC  0     **** LYC Z 16
    14 GLC5       58 GROUP        1 Z    GLC  0     **** GLC Z 18
    15 ZIC7       64 GROUP        1 Z    ZIC  0     **** ZIC Z 19
@<TRIPOS>SET

