2qme_GCP_1_ligand
  -OEChem-08111718373D

 46 48  0     1  0  0  0  0  0999 V2000
  -12.1405    7.3395   22.2653 H   0  0  0  0  0  0  0  0  0  0  0  0
   -9.0541    5.4519   24.4219 H   0  0  0  0  0  0  0  0  0  0  0  0
  -11.2294    5.6631   23.7772 H   0  0  0  0  0  0  0  0  0  0  0  0
   -8.6832    7.8787   25.3389 H   0  0  0  0  0  0  0  0  0  0  0  0
  -11.8006    7.3503   26.0129 H   0  0  0  0  0  0  0  0  0  0  0  0
   -8.5971    8.6743   23.0721 H   0  0  0  0  0  0  0  0  0  0  0  0
   -7.7584    7.2860   23.2613 H   0  0  0  0  0  0  0  0  0  0  0  0
   -5.6715    9.3081   20.3641 H   0  0  0  0  0  0  0  0  0  0  0  0
   -5.6888    7.6900   20.1449 H   0  0  0  0  0  0  0  0  0  0  0  0
  -17.4687    8.8153   25.5753 H   0  0  0  0  0  0  0  0  0  0  0  0
  -15.4238    8.3616   28.3729 H   0  0  0  0  0  0  0  0  0  0  0  0
  -17.0134    8.7540   27.8080 H   0  0  0  0  0  0  0  0  0  0  0  0
   -9.0098    4.9128   26.5317 H   0  0  0  0  0  0  0  0  0  0  0  0
  -11.5367    5.2024   26.5448 H   0  0  0  0  0  0  0  0  0  0  0  0
  -12.8910    7.5400   22.8950 C   0  0  0  0  0  0  0  0  0  0  0  0
  -14.8520    8.0360   23.6890 C   0  0  0  0  0  0  0  0  0  0  0  0
  -13.9330    7.8750   24.8240 C   0  0  0  0  0  0  0  0  0  0  0  0
  -16.2230    8.4260   24.0370 C   0  0  0  0  0  0  0  0  0  0  0  0
  -15.6500    8.3600   26.3530 C   0  0  0  0  0  0  0  0  0  0  0  0
   -9.5910    6.0710   24.9950 C   0  0  1  0  0  0  0  0  0  0  0  0
  -11.0670    5.8960   24.7360 C   0  0  2  0  0  0  0  0  0  0  0  0
   -9.3020    7.5030   24.6490 C   0  0  1  0  0  0  0  0  0  0  0  0
  -11.5840    7.2830   25.0390 C   0  0  2  0  0  0  0  0  0  0  0  0
   -8.6700    7.6970   23.2710 C   0  0  1  0  0  0  0  0  0  0  0  0
   -5.8090    8.5760   19.6970 C   0  0  2  0  0  0  0  0  0  0  0  0
  -14.1500    7.8290   22.5290 N   0  0  0  0  0  0  0  0  0  0  0  0
  -14.3610    8.0070   26.1380 N   0  0  0  0  0  0  0  0  0  0  0  0
  -16.5320    8.5570   25.3390 N   0  0  0  0  0  0  0  0  0  0  0  0
  -12.7900    7.5610   24.2530 N   0  0  0  0  0  0  0  0  0  0  0  0
  -16.0640    8.5040   27.6180 N   0  0  0  0  0  0  0  0  0  0  0  0
   -4.5900   10.0220   17.7220 O   0  5  0  0  0  0  0  0  0  0  0  0
   -3.2010    8.5480   19.1980 O   0  5  0  0  0  0  0  0  0  0  0  0
   -7.7450    7.6250   18.0890 O   0  5  0  0  0  0  0  0  0  0  0  0
   -7.7620    5.8400   20.8140 O   0  5  0  0  0  0  0  0  0  0  0  0
  -17.0770    8.5920   23.1330 O   0  0  0  0  0  0  0  0  0  0  0  0
   -4.7390    7.5750   17.5000 O   0  0  0  0  0  0  0  0  0  0  0  0
   -7.8960   10.1080   18.7860 O   0  0  0  0  0  0  0  0  0  0  0  0
  -10.1180    6.5260   19.9440 O   0  0  0  0  0  0  0  0  0  0  0  0
  -10.5440    8.2040   24.7220 O   0  0  0  0  0  0  0  0  0  0  0  0
   -9.2980    5.8600   26.3910 O   0  0  0  0  0  0  0  0  0  0  0  0
  -11.6530    4.9220   25.5920 O   0  0  0  0  0  0  0  0  0  0  0  0
   -9.4850    7.0700   22.2830 O   0  0  0  0  0  0  0  0  0  0  0  0
   -8.3620    8.2550   20.4690 O   0  0  0  0  0  0  0  0  0  0  0  0
   -4.5230    8.7330   18.4370 P   0  0  0  0  0  0  0  0  0  0  0  0
   -7.5310    8.6730   19.1170 P   0  0  2  0  0  0  0  0  0  0  0  0
   -8.9260    6.7880   20.8030 P   0  0  1  0  0  0  0  0  0  0  0  0
  1 15  1  0  0  0  0
  2 20  1  0  0  0  0
  3 21  1  0  0  0  0
  4 22  1  0  0  0  0
  5 23  1  0  0  0  0
  6 24  1  0  0  0  0
  7 24  1  0  0  0  0
  8 25  1  0  0  0  0
  9 25  1  0  0  0  0
 10 28  1  0  0  0  0
 11 30  1  0  0  0  0
 12 30  1  0  0  0  0
 13 40  1  0  0  0  0
 14 41  1  0  0  0  0
 15 26  2  0  0  0  0
 15 29  1  0  0  0  0
 16 17  2  0  0  0  0
 16 18  1  0  0  0  0
 16 26  1  0  0  0  0
 17 27  1  0  0  0  0
 17 29  1  0  0  0  0
 18 28  1  0  0  0  0
 18 35  2  0  0  0  0
 19 27  2  0  0  0  0
 19 28  1  0  0  0  0
 19 30  1  0  0  0  0
 20 21  1  0  0  0  0
 20 22  1  0  0  0  0
 20 40  1  0  0  0  0
 21 23  1  0  0  0  0
 21 41  1  0  0  0  0
 22 24  1  0  0  0  0
 22 39  1  0  0  0  0
 23 29  1  0  0  0  0
 23 39  1  0  0  0  0
 24 42  1  0  0  0  0
 25 44  1  0  0  0  0
 25 45  1  0  0  0  0
 31 44  1  0  0  0  0
 32 44  1  0  0  0  0
 33 45  1  0  0  0  0
 34 46  1  0  0  0  0
 36 44  2  0  0  0  0
 37 45  2  0  0  0  0
 38 46  2  0  0  0  0
 42 46  1  0  0  0  0
 43 45  1  0  0  0  0
 43 46  1  0  0  0  0
M  CHG  4  31  -1  32  -1  33  -1  34  -1
M  END
> <scpdb_id>
2qme_1

$$$$
