@<TRIPOS>MOLECULE
2qme_GCP_1_ligand
   46    48     1     0     0
SMALL
NO_CHARGES


@<TRIPOS>ATOM
     1 PG          -4.5230     8.7330    18.4370 P.3          1 GCP200   0.0000
     2 O1G         -4.7390     7.5750    17.5000 O.co2        1 GCP200   0.0000
     3 O2G         -4.5900    10.0220    17.7220 O.co2        1 GCP200  -1.0000
     4 O3G         -3.2010     8.5480    19.1980 O.co2        1 GCP200  -1.0000
     5 C3B         -5.8090     8.5760    19.6970 C.3          1 GCP200   0.0000
     6 PB          -7.5310     8.6730    19.1170 P.3          1 GCP200   0.0000
     7 O1B         -7.8960    10.1080    18.7860 O.co2        1 GCP200   0.0000
     8 O2B         -7.7450     7.6250    18.0890 O.co2        1 GCP200  -1.0000
     9 O3A         -8.3620     8.2550    20.4690 O.3          1 GCP200   0.0000
    10 PA          -8.9260     6.7880    20.8030 P.3          1 GCP200   0.0000
    11 O1A        -10.1180     6.5260    19.9440 O.co2        1 GCP200   0.0000
    12 O2A         -7.7620     5.8400    20.8140 O.co2        1 GCP200  -1.0000
    13 O5'         -9.4850     7.0700    22.2830 O.3          1 GCP200   0.0000
    14 C5'         -8.6700     7.6970    23.2710 C.3          1 GCP200   0.0000
    15 C4'         -9.3020     7.5030    24.6490 C.3          1 GCP200   0.0000
    16 O4'        -10.5440     8.2040    24.7220 O.3          1 GCP200   0.0000
    17 C3'         -9.5910     6.0710    24.9950 C.3          1 GCP200   0.0000
    18 O3'         -9.2980     5.8600    26.3910 O.3          1 GCP200   0.0000
    19 C2'        -11.0670     5.8960    24.7360 C.3          1 GCP200   0.0000
    20 O2'        -11.6530     4.9220    25.5920 O.3          1 GCP200   0.0000
    21 C1'        -11.5840     7.2830    25.0390 C.3          1 GCP200   0.0000
    22 N9         -12.7900     7.5610    24.2530 N.pl3        1 GCP200   0.0000
    23 C8         -12.8910     7.5400    22.8950 C.2          1 GCP200   0.0000
    24 N7         -14.1500     7.8290    22.5290 N.2          1 GCP200   0.0000
    25 C5         -14.8520     8.0360    23.6890 C.2          1 GCP200   0.0000
    26 C6         -16.2230     8.4260    24.0370 C.2          1 GCP200   0.0000
    27 O6         -17.0770     8.5920    23.1330 O.2          1 GCP200   0.0000
    28 N1         -16.5320     8.5570    25.3390 N.pl3        1 GCP200   0.0000
    29 C2         -15.6500     8.3600    26.3530 C.2          1 GCP200   0.0000
    30 N2         -16.0640     8.5040    27.6180 N.pl3        1 GCP200   0.0000
    31 N3         -14.3610     8.0070    26.1380 N.2          1 GCP200   0.0000
    32 C4         -13.9330     7.8750    24.8240 C.2          1 GCP200   0.0000
    33 H3B1        -5.6715     9.3081    20.3641 H            1 GCP200   0.0000
    34 H3B2        -5.6888     7.6900    20.1449 H            1 GCP200   0.0000
    35 H5'1        -8.5971     8.6743    23.0721 H            1 GCP200   0.0000
    36 H5'2        -7.7584     7.2860    23.2613 H            1 GCP200   0.0000
    37 H4'         -8.6832     7.8787    25.3389 H            1 GCP200   0.0000
    38 H3'         -9.0541     5.4519    24.4219 H            1 GCP200   0.0000
    39 H7          -9.0098     4.9128    26.5317 H            1 GCP200   0.0000
    40 H2'        -11.2294     5.6631    23.7772 H            1 GCP200   0.0000
    41 H9         -11.5367     5.2024    26.5448 H            1 GCP200   0.0000
    42 H1'        -11.8006     7.3503    26.0129 H            1 GCP200   0.0000
    43 H11        -12.1405     7.3395    22.2653 H            1 GCP200   0.0000
    44 H12        -17.4687     8.8153    25.5753 H            1 GCP200   0.0000
    45 H13        -15.4238     8.3616    28.3729 H            1 GCP200   0.0000
    46 H14        -17.0134     8.7540    27.8080 H            1 GCP200   0.0000
@<TRIPOS>BOND
     1    1    2      ar
     2    1    3      ar
     3    1    4      ar
     4    1    5       1
     5    5    6       1
     6    6    7      ar
     7    6    8      ar
     8    6    9       1
     9    9   10       1
    10   10   11      ar
    11   10   12      ar
    12   10   13       1
    13   13   14       1
    14   14   15       1
    15   15   16       1
    16   15   17       1
    17   16   21       1
    18   17   18       1
    19   17   19       1
    20   19   20       1
    21   19   21       1
    22   21   22       1
    23   22   23       1
    24   22   32       1
    25   23   24       2
    26   24   25       1
    27   25   26       1
    28   25   32       2
    29   26   27       2
    30   26   28       1
    31   28   29       1
    32   29   30       1
    33   29   31       2
    34   31   32       1
    35   30   46       1
    36   30   45       1
    37    5   33       1
    38    5   34       1
    39   28   44       1
    40   23   43       1
    41   14   35       1
    42   14   36       1
    43   15   37       1
    44   17   38       1
    45   18   39       1
    46   19   40       1
    47   20   41       1
    48   21   42       1
@<TRIPOS>SUBSTRUCTURE
     1 GCP200      1 GROUP             4 A     GCP     0 **** GCP A 200
