#    Name: 13573
#    Modification time : Tue Aug  8 19:46:38 2017

@<TRIPOS>MOLECULE
13573
   40     0     9     0     0
SMALL
NO_CHARGES


@<TRIPOS>ATOM
      1 N          24.9810   31.5560   29.5170 N.am      1 SEL1        0.0000 
      2 O          27.1770   32.4440   28.3640 O.2       2 ALL2        0.0000 
      3 CA         23.7360   28.8650   28.9870 C.3       3 GLL5        0.0000 
      4 CA         24.9140   29.3780   28.3940 C.3       3 GLL5        0.0000 
      5 CA         28.8470   31.9240   25.8360 C.3       3 GLL5        0.0000 
      6 CA         30.8760   31.0490   24.8190 C.3       3 GLL5        0.0000 
      7 CA         21.9930   27.0560   29.2860 C.3       3 GLL5        0.0000 
      8 CA         26.5620   25.5410   24.0630 C.3       3 GLL5        0.0000 
      9 CA         27.9000   25.8740   24.7420 C.3       3 GLL5        0.0000 
     10 CA         25.1690   27.2930   27.0840 C.3       3 GLL5        0.0000 
     11 CA         30.5740   29.7360   25.3140 C.3       3 GLL5        0.0000 
     12 CA         29.4110   29.5290   26.0660 C.3       3 GLL5        0.0000 
     13 CA         23.9780   26.7840   27.6850 C.3       3 GLL5        0.0000 
     14 N          22.9670   33.3550   30.5780 N.am      4 SEP1        0.0000 
     15 O          26.7220   34.8460   29.9330 O.2       5 ALP2        0.0000 
     16 CA         23.1310   30.2280   24.9400 C.3       6 GLP5        0.0000 
     17 CA         24.1860   32.2250   26.0190 C.3       6 GLP5        0.0000 
     18 CA         27.1050   35.5480   26.1550 C.3       6 GLP5        0.0000 
     19 CA         30.7120   30.3770   20.5020 C.3       6 GLP5        0.0000 
     20 CA         25.5620   25.1260   30.1920 C.3       6 GLP5        0.0000 
     21 CA         23.8060   24.3480   20.8180 C.3       6 GLP5        0.0000 
     22 CA         30.9840   26.4040   27.9200 C.3       6 GLP5        0.0000 
     23 CA         30.1170   34.5830   28.6390 C.3       6 GLP5        0.0000 
     24 CA         26.7400   31.8940   22.8160 C.3       6 GLP5        0.0000 
     25 CA         34.3810   29.2520   25.8180 C.3       6 GLP5        0.0000 
     26 N          23.9740   32.4555   30.0475 N.am      7 SEC1        0.0000 
     27 O          26.9495   33.6450   29.1485 O.2       8 ALC2        0.0000 
     28 CA         23.4335   29.5465   26.9635 C.3       9 GLC5        0.0000 
     29 CA         24.5500   30.8015   27.2065 C.3       9 GLC5        0.0000 
     30 CA         27.9760   33.7360   25.9955 C.3       9 GLC5        0.0000 
     31 CA         30.7940   30.7130   22.6605 C.3       9 GLC5        0.0000 
     32 CA         23.7775   26.0910   29.7390 C.3       9 GLC5        0.0000 
     33 CA         25.1840   24.9445   22.4405 C.3       9 GLC5        0.0000 
     34 CA         29.4420   26.1390   26.3310 C.3       9 GLC5        0.0000 
     35 CA         23.8522   28.6333   26.1623 C.3       9 GLC5        0.0000 
     36 CA         29.7757   33.3075   27.0480 C.3       9 GLC5        0.0000 
     37 CA         28.0482   31.7995   24.1991 C.3       9 GLC5        0.0000 
     38 CA         32.5530   29.8223   25.4423 C.3       9 GLC5        0.0000 
     39 CA         30.4883   28.0183   26.8050 C.3       9 GLC5        0.0000 
     40 CA         24.8586   26.1981   29.0045 C.3       9 GLC5        0.0000 
@<TRIPOS>BOND
@<TRIPOS>SUBSTRUCTURE
     1 SEL1        1 GROUP        1 Z    SEL  0     ROOT SEL Z 0
     2 ALL2        2 GROUP        1 Z    ALL  0     **** ALL Z 1
     3 GLL5        3 GROUP        1 Z    GLL  0     **** GLL Z 4
     4 SEP1       14 GROUP        1 Z    SEP  0     **** SEP Z 7
     5 ALP2       15 GROUP        1 Z    ALP  0     **** ALP Z 8
     6 GLP5       16 GROUP        1 Z    GLP  0     **** GLP Z 11
     7 SEC1       26 GROUP        1 Z    SEC  0     **** SEC Z 14
     8 ALC2       27 GROUP        1 Z    ALC  0     **** ALC Z 15
     9 GLC5       28 GROUP        1 Z    GLC  0     **** GLC Z 18
@<TRIPOS>SET

