2duv_371_1_ligand
  -OEChem-08111718373D

 44 47  0     1  0  0  0  0  0999 V2000
   28.2298   32.6880   26.0239 H   0  0  0  0  0  0  0  0  0  0  0  0
   30.2429   33.0517   24.7317 H   0  0  0  0  0  0  0  0  0  0  0  0
   23.2371   29.4164   29.6556 H   0  0  0  0  0  0  0  0  0  0  0  0
   29.1963   28.6160   26.4128 H   0  0  0  0  0  0  0  0  0  0  0  0
   23.6457   25.8735   27.4388 H   0  0  0  0  0  0  0  0  0  0  0  0
   26.5993   25.7883   23.0948 H   0  0  0  0  0  0  0  0  0  0  0  0
   26.3685   24.5638   24.1502 H   0  0  0  0  0  0  0  0  0  0  0  0
   24.5965   25.8599   24.7772 H   0  0  0  0  0  0  0  0  0  0  0  0
   25.3318   27.2432   24.3160 H   0  0  0  0  0  0  0  0  0  0  0  0
   28.2581   26.7611   24.4508 H   0  0  0  0  0  0  0  0  0  0  0  0
   28.5888   25.1673   24.5807 H   0  0  0  0  0  0  0  0  0  0  0  0
   21.7925   26.1402   28.9381 H   0  0  0  0  0  0  0  0  0  0  0  0
   22.1172   27.0161   30.2775 H   0  0  0  0  0  0  0  0  0  0  0  0
   21.2328   27.6686   29.0697 H   0  0  0  0  0  0  0  0  0  0  0  0
   32.6152   30.4148   23.9117 H   0  0  0  0  0  0  0  0  0  0  0  0
   31.2905   27.7797   25.3383 H   0  0  0  0  0  0  0  0  0  0  0  0
   28.8470   31.9240   25.8360 C   0  0  0  0  0  0  0  0  0  0  0  0
   30.0220   32.1400   25.0780 C   0  0  0  0  0  0  0  0  0  0  0  0
   23.7360   28.8650   28.9870 C   0  0  0  0  0  0  0  0  0  0  0  0
   29.4110   29.5290   26.0660 C   0  0  0  0  0  0  0  0  0  0  0  0
   23.9780   26.7840   27.6850 C   0  0  0  0  0  0  0  0  0  0  0  0
   24.9140   29.3780   28.3940 C   0  0  0  0  0  0  0  0  0  0  0  0
   28.5350   30.6160   26.3370 C   0  0  0  0  0  0  0  0  0  0  0  0
   23.2560   27.5740   28.6410 C   0  0  0  0  0  0  0  0  0  0  0  0
   25.1690   27.2930   27.0840 C   0  0  0  0  0  0  0  0  0  0  0  0
   25.4570   30.7340   28.7240 C   0  0  0  0  0  0  0  0  0  0  0  0
   25.6240   28.5910   27.4430 C   0  0  0  0  0  0  0  0  0  0  0  0
   30.8760   31.0490   24.8190 C   0  0  0  0  0  0  0  0  0  0  0  0
   30.5740   29.7360   25.3140 C   0  0  0  0  0  0  0  0  0  0  0  0
   26.7270   31.1880   28.0230 C   0  0  0  0  0  0  0  0  0  0  0  0
   27.3150   30.3250   27.1130 C   0  0  0  0  0  0  0  0  0  0  0  0
   26.5620   25.5410   24.0630 C   0  0  2  0  0  0  0  0  0  0  0  0
   25.4590   26.3660   24.7790 C   0  0  2  0  0  0  0  0  0  0  0  0
   27.9000   25.8740   24.7420 C   0  0  2  0  0  0  0  0  0  0  0  0
   21.9930   27.0560   29.2860 C   0  0  0  0  0  0  0  0  0  0  0  0
   25.9100   26.5850   26.1550 N   0  0  3  0  0  0  0  0  0  0  0  0
   24.9810   31.5560   29.5170 O   0  0  0  0  0  0  0  0  0  0  0  0
   27.0860   24.5620   26.8660 O   0  0  0  0  0  0  0  0  0  0  0  0
   28.1790   26.7660   27.2180 O   0  0  0  0  0  0  0  0  0  0  0  0
   26.7820   29.0830   26.8430 O   0  0  0  0  0  0  0  0  0  0  0  0
   32.0230   31.2020   24.0840 O   0  0  0  0  0  0  0  0  0  0  0  0
   31.4670   28.7080   25.0110 O   0  0  0  0  0  0  0  0  0  0  0  0
   27.1770   32.4440   28.3640 O   0  5  0  0  0  0  0  0  0  0  0  0
   27.3570   25.8980   26.4190 S   0  0  1  0  0  0  0  0  0  0  0  0
  1 17  1  0  0  0  0
  2 18  1  0  0  0  0
  3 19  1  0  0  0  0
  4 20  1  0  0  0  0
  5 21  1  0  0  0  0
  6 32  1  0  0  0  0
  7 32  1  0  0  0  0
  8 33  1  0  0  0  0
  9 33  1  0  0  0  0
 10 34  1  0  0  0  0
 11 34  1  0  0  0  0
 12 35  1  0  0  0  0
 13 35  1  0  0  0  0
 14 35  1  0  0  0  0
 15 41  1  0  0  0  0
 16 42  1  0  0  0  0
 17 18  1  0  0  0  0
 17 23  2  0  0  0  0
 18 28  2  0  0  0  0
 19 22  1  0  0  0  0
 19 24  2  0  0  0  0
 20 23  1  0  0  0  0
 20 29  2  0  0  0  0
 21 24  1  0  0  0  0
 21 25  2  0  0  0  0
 22 26  1  0  0  0  0
 22 27  2  0  0  0  0
 23 31  1  0  0  0  0
 24 35  1  0  0  0  0
 25 27  1  0  0  0  0
 25 36  1  0  0  0  0
 26 30  1  0  0  0  0
 26 37  2  0  0  0  0
 27 40  1  0  0  0  0
 28 29  1  0  0  0  0
 28 41  1  0  0  0  0
 29 42  1  0  0  0  0
 30 31  2  0  0  0  0
 30 43  1  0  0  0  0
 31 40  1  0  0  0  0
 32 33  1  0  0  0  0
 32 34  1  0  0  0  0
 33 36  1  0  0  0  0
 34 44  1  0  0  0  0
 36 44  1  0  0  0  0
 38 44  2  0  0  0  0
 39 44  2  0  0  0  0
M  CHG  1  43  -1
M  END
> <scpdb_id>
2duv_1

$$$$
