@<TRIPOS>MOLECULE
2duv_371_1_ligand
   45    48     1     0     0
SMALL
NO_CHARGES


@<TRIPOS>ATOM
     1 O1          26.7820    29.0830    26.8430 O.2          1 371501   0.0000
     2 C1          27.3150    30.3250    27.1130 C.2          1 371501   0.0000
     3 C2          26.7270    31.1880    28.0230 C.2          1 371501   0.0000
     4 C3          25.4570    30.7340    28.7240 C.2          1 371501   0.0000
     5 C4          23.7360    28.8650    28.9870 C.ar         1 371501   0.0000
     6 C5          23.2560    27.5740    28.6410 C.ar         1 371501   0.0000
     7 C6          23.9780    26.7840    27.6850 C.ar         1 371501   0.0000
     8 C7          25.1690    27.2930    27.0840 C.ar         1 371501   0.0000
     9 C8          25.6240    28.5910    27.4430 C.ar         1 371501   0.0000
    10 C9          24.9140    29.3780    28.3940 C.ar         1 371501   0.0000
    11 O2          24.9810    31.5560    29.5170 O.2          1 371501   0.0000
    12 C10         28.5350    30.6160    26.3370 C.ar         1 371501   0.0000
    13 C11         28.8470    31.9240    25.8360 C.ar         1 371501   0.0000
    14 C12         30.0220    32.1400    25.0780 C.ar         1 371501   0.0000
    15 C13         30.8760    31.0490    24.8190 C.ar         1 371501   0.0000
    16 C14         30.5740    29.7360    25.3140 C.ar         1 371501   0.0000
    17 C15         29.4110    29.5290    26.0660 C.ar         1 371501   0.0000
    18 C16         21.9930    27.0560    29.2860 C.3          1 371501   0.0000
    19 O3          27.1770    32.4440    28.3640 O.3          1 371501   0.0000
    20 O4          31.4670    28.7080    25.0110 O.3          1 371501   0.0000
    21 O5          32.0230    31.2020    24.0840 O.3          1 371501   0.0000
    22 C17         26.5620    25.5410    24.0630 C.3          1 371501   0.0000
    23 C18         25.4590    26.3660    24.7790 C.3          1 371501   0.0000
    24 N1          25.9100    26.5850    26.1550 N.pl3        1 371501   0.0000
    25 S1          27.3570    25.8980    26.4190 S.o2         1 371501   0.0000
    26 C19         27.9000    25.8740    24.7420 C.3          1 371501   0.0000
    27 O7          27.0860    24.5620    26.8660 O.2          1 371501   0.0000
    28 O6          28.1790    26.7660    27.2180 O.2          1 371501   0.0000
    29 H1          23.2371    29.4164    29.6556 H            1 371501   0.0000
    30 H2          23.6457    25.8735    27.4388 H            1 371501   0.0000
    31 H3          28.2298    32.6880    26.0239 H            1 371501   0.0000
    32 H4          30.2429    33.0517    24.7317 H            1 371501   0.0000
    33 H5          29.1963    28.6160    26.4128 H            1 371501   0.0000
    34 H6          21.7925    26.1402    28.9381 H            1 371501   0.0000
    35 H7          22.1172    27.0161    30.2775 H            1 371501   0.0000
    36 H8          21.2328    27.6686    29.0697 H            1 371501   0.0000
    37 H9          26.6761    32.9891    29.0363 H            1 371501   0.0000
    38 H10         31.2905    27.7797    25.3383 H            1 371501   0.0000
    39 H11         32.6152    30.4148    23.9117 H            1 371501   0.0000
    40 H12         26.5993    25.7883    23.0948 H            1 371501   0.0000
    41 H13         26.3685    24.5638    24.1502 H            1 371501   0.0000
    42 H14         24.5965    25.8599    24.7772 H            1 371501   0.0000
    43 H15         25.3318    27.2432    24.3160 H            1 371501   0.0000
    44 H16         28.2581    26.7611    24.4508 H            1 371501   0.0000
    45 H17         28.5888    25.1673    24.5807 H            1 371501   0.0000
@<TRIPOS>BOND
     1    1    2       1
     2    1    9       1
     3    2    3       2
     4    2   12       1
     5    3    4       1
     6    3   19       1
     7    4   10       1
     8    4   11       2
     9    5    6      ar
    10    5   10      ar
    11    6    7      ar
    12    6   18       1
    13    7    8      ar
    14    8    9      ar
    15    8   24       1
    16    9   10      ar
    17   12   13      ar
    18   12   17      ar
    19   13   14      ar
    20   14   15      ar
    21   15   16      ar
    22   15   21       1
    23   16   17      ar
    24   16   20       1
    25   22   23       1
    26   22   26       1
    27   23   24       1
    28   24   25       1
    29   25   26       1
    30   25   27       2
    31   25   28       2
    32    5   29       1
    33    7   30       1
    34   13   31       1
    35   14   32       1
    36   17   33       1
    37   18   34       1
    38   18   35       1
    39   18   36       1
    40   19   37       1
    41   20   38       1
    42   21   39       1
    43   22   40       1
    44   22   41       1
    45   23   42       1
    46   23   43       1
    47   26   44       1
    48   26   45       1
@<TRIPOS>SUBSTRUCTURE
     1 371501      1 GROUP             4 A     371     0 **** 371 A 501
