#    Name: 18322
#    Modification time : Tue Aug  8 21:37:59 2017

@<TRIPOS>MOLECULE
18322
   39     0     9     0     0
SMALL
NO_CHARGES


@<TRIPOS>ATOM
      1 N          23.5930    5.1460   14.3970 N.am      1 SEL1        0.0000 
      2 O          23.8690    2.4970   14.9340 O.2       2 ALL2        0.0000 
      3 O          21.4750    5.8310   13.9640 O.2       2 ALL2        0.0000 
      4 O          20.7110   -0.7010   14.5040 O.2       2 ALL2        0.0000 
      5 CA         20.4450    3.8530   14.0810 C.3       3 GLL5        0.0000 
      6 CA         19.0230    5.7590   13.5840 C.3       3 GLL5        0.0000 
      7 CA         17.9040    4.9280   13.5280 C.3       3 GLL5        0.0000 
      8 CA         18.0470    3.5610   13.7480 C.3       3 GLL5        0.0000 
      9 CA         23.2430    0.3730   15.0550 C.3       3 GLL5        0.0000 
     10 CA         24.6820   -1.4890   15.6210 C.3       3 GLL5        0.0000 
     11 CA         19.3120    3.0310   14.0210 C.3       3 GLL5        0.0000 
     12 N          25.0300    7.0670   15.3890 N.am      4 SEP1        0.0000 
     13 O          25.2090    4.4910   16.8120 O.2       5 ALP2        0.0000 
     14 O          22.5560    8.8560   13.1280 O.2       5 ALP2        0.0000 
     15 O          18.9320   -3.0970   13.8790 O.2       5 ALP2        0.0000 
     16 CA         22.8190    5.3020   10.6770 C.3       6 GLP5        0.0000 
     17 CA         19.1850    9.4990   15.2950 C.3       6 GLP5        0.0000 
     18 CA         19.6350    8.3520   10.9130 C.3       6 GLP5        0.0000 
     19 CA         15.9150    6.1380   17.3680 C.3       6 GLP5        0.0000 
     20 CA         18.7810    0.0870   11.3110 C.3       6 GLP5        0.0000 
     21 CA         14.9940    2.9300   10.5650 C.3       6 GLP5        0.0000 
     22 CA         24.6100   -1.0260   11.8020 C.3       6 GLP5        0.0000 
     23 CA         25.1430   -2.3230   12.3950 C.3       6 GLP5        0.0000 
     24 CA         21.0480    1.0920   10.9660 C.3       6 GLP5        0.0000 
     25 CA         19.7920    5.8430   17.1500 C.3       6 GLP5        0.0000 
     26 N          24.3115    6.1065   14.8930 N.am      7 SEC1        0.0000 
     27 O          24.5390    3.4940   15.8730 O.2       8 ALC2        0.0000 
     28 O          22.0155    7.3435   13.5460 O.2       8 ALC2        0.0000 
     29 O          19.8215   -1.8990   14.1915 O.2       8 ALC2        0.0000 
     30 CA         21.6320    4.5775   12.3790 C.3       9 GLC5        0.0000 
     31 CA         19.1040    7.6290   14.4395 C.3       9 GLC5        0.0000 
     32 CA         19.3290    7.0555   12.2485 C.3       9 GLC5        0.0000 
     33 CA         16.9095    5.5330   15.4480 C.3       9 GLC5        0.0000 
     34 CA         18.4140    1.8240   12.5295 C.3       9 GLC5        0.0000 
     35 CA         16.5205    3.2455   12.1565 C.3       9 GLC5        0.0000 
     36 CA         24.6412   -0.1189   13.5667 C.3       9 GLC5        0.0000 
     37 CA         24.7324   -1.6731   13.9371 C.3       9 GLC5        0.0000 
     38 CA         20.4632    2.2670   12.5085 C.3       9 GLC5        0.0000 
     39 CA         19.2005    4.9099   15.4629 C.3       9 GLC5        0.0000 
@<TRIPOS>BOND
@<TRIPOS>SUBSTRUCTURE
     1 SEL1        1 GROUP        1 Z    SEL  0     ROOT SEL Z 0
     2 ALL2        2 GROUP        1 Z    ALL  0     **** ALL Z 1
     3 GLL5        5 GROUP        1 Z    GLL  0     **** GLL Z 4
     4 SEP1       12 GROUP        1 Z    SEP  0     **** SEP Z 7
     5 ALP2       13 GROUP        1 Z    ALP  0     **** ALP Z 8
     6 GLP5       16 GROUP        1 Z    GLP  0     **** GLP Z 11
     7 SEC1       26 GROUP        1 Z    SEC  0     **** SEC Z 14
     8 ALC2       27 GROUP        1 Z    ALC  0     **** ALC Z 15
     9 GLC5       30 GROUP        1 Z    GLC  0     **** GLC Z 18
@<TRIPOS>SET

