@<TRIPOS>MOLECULE
2qkr_IXM_1_ligand
   32    35     1     0     0
SMALL
NO_CHARGES


@<TRIPOS>ATOM
     1 C1          23.2430     0.3730    15.0550 C.ar         1 IXM401   0.0000
     2 C2          22.1500     1.1540    14.7070 C.2          1 IXM401   0.0000
     3 C3          24.3090     1.2580    15.1890 C.ar         1 IXM401   0.0000
     4 N4          23.8690     2.4970    14.9340 N.pl3        1 IXM401   0.0000
     5 C5          25.5690     0.7610    15.5410 C.ar         1 IXM401   0.0000
     6 C7          25.7550    -0.6080    15.7540 C.ar         1 IXM401   0.0000
     7 C9          24.6820    -1.4890    15.6210 C.ar         1 IXM401   0.0000
     8 C11         23.4250    -0.9980    15.2710 C.ar         1 IXM401   0.0000
     9 C13         22.5640     2.4910    14.6270 C.2          1 IXM401   0.0000
    10 C14         21.8120     3.6490    14.3210 C.2          1 IXM401   0.0000
    11 C15         22.3950     4.9090    14.2410 C.2          1 IXM401   0.0000
    12 N16         21.4750     5.8310    13.9640 N.am         1 IXM401   0.0000
    13 C17         20.2860     5.2310    13.8570 C.ar         1 IXM401   0.0000
    14 C18         20.4450     3.8530    14.0810 C.ar         1 IXM401   0.0000
    15 C19         19.0230     5.7590    13.5840 C.ar         1 IXM401   0.0000
    16 C20         17.9040     4.9280    13.5280 C.ar         1 IXM401   0.0000
    17 C21         18.0470     3.5610    13.7480 C.ar         1 IXM401   0.0000
    18 C22         19.3120     3.0310    14.0210 C.ar         1 IXM401   0.0000
    19 O23         23.5930     5.1460    14.3970 O.2          1 IXM401   0.0000
    20 N24         20.9360     0.6500    14.4900 N.2          1 IXM401   0.0000
    21 O39         20.7110    -0.7010    14.5040 O.3          1 IXM401   0.0000
    22 H1          24.4387     3.3182    14.9681 H            1 IXM401   0.0000
    23 H2          26.3409     1.3889    15.6407 H            1 IXM401   0.0000
    24 H3          26.6590    -0.9562    16.0022 H            1 IXM401   0.0000
    25 H4          24.8136    -2.4681    15.7759 H            1 IXM401   0.0000
    26 H5          22.6527    -1.6258    15.1742 H            1 IXM401   0.0000
    27 H6          21.6457     6.8102    13.8543 H            1 IXM401   0.0000
    28 H7          18.9195     6.7412    13.4273 H            1 IXM401   0.0000
    29 H8          17.0024     5.3129    13.3305 H            1 IXM401   0.0000
    30 H9          17.2484     2.9603    13.7110 H            1 IXM401   0.0000
    31 H10         19.4096     2.0479    14.1761 H            1 IXM401   0.0000
    32 H11         19.7911    -1.0564    14.3384 H            1 IXM401   0.0000
@<TRIPOS>BOND
     1    1    2       1
     2    1    3      ar
     3    1    8      ar
     4    2    9       1
     5    2   20       2
     6    3    4       1
     7    3    5      ar
     8    4    9       1
     9    5    6      ar
    10    6    7      ar
    11    7    8      ar
    12    9   10       2
    13   10   11       1
    14   10   14       1
    15   11   12      am
    16   11   19       2
    17   12   13       1
    18   13   14      ar
    19   13   15      ar
    20   14   18      ar
    21   15   16      ar
    22   16   17      ar
    23   17   18      ar
    24   20   21       1
    25    4   22       1
    26    5   23       1
    27    6   24       1
    28    7   25       1
    29    8   26       1
    30   12   27       1
    31   15   28       1
    32   16   29       1
    33   17   30       1
    34   18   31       1
    35   21   32       1
@<TRIPOS>SUBSTRUCTURE
     1 IXM401      1 GROUP             4 A     IXM     0 **** IXM A 401
