2qkr_IXM_1_ligand
  -OEChem-08111718373D

 32 35  0     0  0  0  0  0  0999 V2000
   17.2484    2.9603   13.7110 H   0  0  0  0  0  0  0  0  0  0  0  0
   24.8136   -2.4681   15.7759 H   0  0  0  0  0  0  0  0  0  0  0  0
   17.0024    5.3129   13.3305 H   0  0  0  0  0  0  0  0  0  0  0  0
   26.6590   -0.9562   16.0022 H   0  0  0  0  0  0  0  0  0  0  0  0
   19.4096    2.0479   14.1761 H   0  0  0  0  0  0  0  0  0  0  0  0
   22.6527   -1.6258   15.1742 H   0  0  0  0  0  0  0  0  0  0  0  0
   18.9195    6.7412   13.4273 H   0  0  0  0  0  0  0  0  0  0  0  0
   26.3409    1.3889   15.6407 H   0  0  0  0  0  0  0  0  0  0  0  0
   24.4387    3.3182   14.9681 H   0  0  0  0  0  0  0  0  0  0  0  0
   21.6457    6.8102   13.8543 H   0  0  0  0  0  0  0  0  0  0  0  0
   19.7911   -1.0564   14.3384 H   0  0  0  0  0  0  0  0  0  0  0  0
   18.0470    3.5610   13.7480 C   0  0  0  0  0  0  0  0  0  0  0  0
   24.6820   -1.4890   15.6210 C   0  0  0  0  0  0  0  0  0  0  0  0
   17.9040    4.9280   13.5280 C   0  0  0  0  0  0  0  0  0  0  0  0
   25.7550   -0.6080   15.7540 C   0  0  0  0  0  0  0  0  0  0  0  0
   19.3120    3.0310   14.0210 C   0  0  0  0  0  0  0  0  0  0  0  0
   23.4250   -0.9980   15.2710 C   0  0  0  0  0  0  0  0  0  0  0  0
   19.0230    5.7590   13.5840 C   0  0  0  0  0  0  0  0  0  0  0  0
   25.5690    0.7610   15.5410 C   0  0  0  0  0  0  0  0  0  0  0  0
   20.4450    3.8530   14.0810 C   0  0  0  0  0  0  0  0  0  0  0  0
   23.2430    0.3730   15.0550 C   0  0  0  0  0  0  0  0  0  0  0  0
   20.2860    5.2310   13.8570 C   0  0  0  0  0  0  0  0  0  0  0  0
   24.3090    1.2580   15.1890 C   0  0  0  0  0  0  0  0  0  0  0  0
   21.8120    3.6490   14.3210 C   0  0  0  0  0  0  0  0  0  0  0  0
   22.1500    1.1540   14.7070 C   0  0  0  0  0  0  0  0  0  0  0  0
   22.5640    2.4910   14.6270 C   0  0  0  0  0  0  0  0  0  0  0  0
   22.3950    4.9090   14.2410 C   0  0  0  0  0  0  0  0  0  0  0  0
   20.9360    0.6500   14.4900 N   0  0  0  0  0  0  0  0  0  0  0  0
   23.8690    2.4970   14.9340 N   0  0  0  0  0  0  0  0  0  0  0  0
   21.4750    5.8310   13.9640 N   0  0  0  0  0  0  0  0  0  0  0  0
   23.5930    5.1460   14.3970 O   0  0  0  0  0  0  0  0  0  0  0  0
   20.7110   -0.7010   14.5040 O   0  0  0  0  0  0  0  0  0  0  0  0
  1 12  1  0  0  0  0
  2 13  1  0  0  0  0
  3 14  1  0  0  0  0
  4 15  1  0  0  0  0
  5 16  1  0  0  0  0
  6 17  1  0  0  0  0
  7 18  1  0  0  0  0
  8 19  1  0  0  0  0
  9 29  1  0  0  0  0
 10 30  1  0  0  0  0
 11 32  1  0  0  0  0
 12 14  1  0  0  0  0
 12 16  2  0  0  0  0
 13 15  1  0  0  0  0
 13 17  2  0  0  0  0
 14 18  2  0  0  0  0
 15 19  2  0  0  0  0
 16 20  1  0  0  0  0
 17 21  1  0  0  0  0
 18 22  1  0  0  0  0
 19 23  1  0  0  0  0
 20 22  2  0  0  0  0
 20 24  1  0  0  0  0
 21 23  2  0  0  0  0
 21 25  1  0  0  0  0
 22 30  1  0  0  0  0
 23 29  1  0  0  0  0
 24 26  2  0  0  0  0
 24 27  1  0  0  0  0
 25 26  1  0  0  0  0
 25 28  2  0  0  0  0
 26 29  1  0  0  0  0
 27 30  1  0  0  0  0
 27 31  2  0  0  0  0
 28 32  1  0  0  0  0
M  END
> <scpdb_id>
2qkr_1

$$$$
