#    Name: 12215
#    Modification time : Tue Aug  8 20:37:49 2017

@<TRIPOS>MOLECULE
12215
   94     0    12     0     0
SMALL
NO_CHARGES


@<TRIPOS>ATOM
      1 N         -13.0830   85.0300    4.5730 N.am      1 SEL1        0.0000 
      2 N         -14.7290   85.3820    6.5160 N.am      1 SEL1        0.0000 
      3 N         -17.4430   83.1920    8.0900 N.am      1 SEL1        0.0000 
      4 N         -23.3160   87.8450   10.3000 N.am      1 SEL1        0.0000 
      5 N         -12.2710   85.9010    6.8030 N.am      1 SEL1        0.0000 
      6 N         -11.4230   88.2640    6.4030 N.am      1 SEL1        0.0000 
      7 N         -10.0930   86.5710    7.7310 N.am      1 SEL1        0.0000 
      8 N         -13.3590   90.5140   11.3100 N.am      1 SEL1        0.0000 
      9 N         -11.9630   92.2410    9.7930 N.am      1 SEL1        0.0000 
     10 N          -5.5140   89.7230    7.2230 N.am      1 SEL1        0.0000 
     11 N         -21.6840   83.5910    5.4260 N.am      1 SEL1        0.0000 
     12 N         -20.4920   85.6540    4.7510 N.am      1 SEL1        0.0000 
     13 O         -17.4430   83.1920    8.0900 O.2       2 ALL2        0.0000 
     14 O         -23.4350   89.8190    8.9760 O.2       2 ALL2        0.0000 
     15 O         -13.3590   90.5140   11.3100 O.2       2 ALL2        0.0000 
     16 O          -7.4080   88.6610    6.8690 O.2       2 ALL2        0.0000 
     17 NZ        -13.0830   85.0300    4.5730 N.4       3 LYL3        0.0000 
     18 NZ        -19.4010   83.4030    4.4810 N.4       3 LYL3        0.0000 
     19 NZ        -20.4920   85.6540    4.7510 N.4       3 LYL3        0.0000 
     20 CA        -15.2670   86.0870    7.6310 C.3       4 GLL5        0.0000 
     21 CA        -17.2640   84.4400    7.4370 C.3       4 GLL5        0.0000 
     22 CA        -18.5860   85.1620    7.1440 C.3       4 GLL5        0.0000 
     23 CA        -18.7550   85.9940    8.3980 C.3       4 GLL5        0.0000 
     24 CA        -11.6420   87.5250    9.9630 C.3       4 GLL5        0.0000 
     25 CA        -11.8000   88.7580   10.8690 C.3       4 GLL5        0.0000 
     26 CA        -11.5380   90.8970    9.7960 C.3       4 GLL5        0.0000 
     27 CA         -7.1170   90.3120    8.6880 C.3       4 GLL5        0.0000 
     28 CA         -6.3560   91.2740    9.4490 C.3       4 GLL5        0.0000 
     29 CA         -6.8740   92.0090   10.5320 C.3       4 GLL5        0.0000 
     30 N         -15.7520   84.4540    3.9500 N.am      5 SEP1        0.0000 
     31 N         -16.9020   80.1210    9.3560 N.am      5 SEP1        0.0000 
     32 N         -18.2900   80.9450    6.8840 N.am      5 SEP1        0.0000 
     33 N         -25.4050   88.4850   11.8260 N.am      5 SEP1        0.0000 
     34 N         -13.1310   84.4760    9.1770 N.am      5 SEP1        0.0000 
     35 N          -9.1800   87.2020    4.0220 N.am      5 SEP1        0.0000 
     36 N          -9.9900   83.4770    8.9800 N.am      5 SEP1        0.0000 
     37 N         -12.2200   93.1170   13.0560 N.am      5 SEP1        0.0000 
     38 N          -9.5090   93.7820    9.5920 N.am      5 SEP1        0.0000 
     39 N          -3.3280   87.8350    6.8940 N.am      5 SEP1        0.0000 
     40 N         -24.0620   82.5010    5.3490 N.am      5 SEP1        0.0000 
     41 N         -22.7870   87.7130    5.4440 N.am      5 SEP1        0.0000 
     42 N         -17.9130   84.3600    3.1510 N.am      5 SEP1        0.0000 
     43 N         -21.1170   88.4790    4.0610 N.am      5 SEP1        0.0000 
     44 O         -15.4740   83.1600   10.5220 O.2       6 ALP2        0.0000 
     45 O         -26.6790   89.5280    8.7480 O.2       6 ALP2        0.0000 
     46 O         -14.4610   88.5990   12.4990 O.2       6 ALP2        0.0000 
     47 O          -5.1000   86.9050    5.0520 O.2       6 ALP2        0.0000 
     48 NZ        -16.8900   85.0610    3.6270 N.4       7 LYP3        0.0000 
     49 NZ        -22.2810   88.6710    4.6720 N.4       7 LYP3        0.0000 
     50 CA        -14.7270   82.5480    5.0260 C.3       8 GLP5        0.0000 
     51 CA        -21.0860   82.1030    8.4990 C.3       8 GLP5        0.0000 
     52 CA        -18.6750   88.1550   12.0940 C.3       8 GLP5        0.0000 
     53 CA         -9.0400   84.8370   10.8360 C.3       8 GLP5        0.0000 
     54 CA         -9.7100   88.9090   14.1590 C.3       8 GLP5        0.0000 
     55 CA         -9.8580   95.0130    9.1110 C.3       8 GLP5        0.0000 
     56 CA         -7.3760   86.7730   10.4130 C.3       8 GLP5        0.0000 
     57 CA         -4.6920   89.3140   12.5060 C.3       8 GLP5        0.0000 
     58 CA         -7.3840   94.8680   12.1960 C.3       8 GLP5        0.0000 
     59 CA         -5.9970   89.3510   13.3070 C.3       8 GLP5        0.0000 
     60 N         -14.4175   84.7420    4.2615 N.am      9 SEC1        0.0000 
     61 N         -15.2405   84.9180    5.2330 N.am      9 SEC1        0.0000 
     62 N         -17.1725   81.6565    8.7230 N.am      9 SEC1        0.0000 
     63 N         -17.8665   82.0685    7.4870 N.am      9 SEC1        0.0000 
     64 N         -24.3605   88.1650   11.0630 N.am      9 SEC1        0.0000 
     65 N         -12.7010   85.1885    7.9900 N.am      9 SEC1        0.0000 
     66 N         -10.3015   87.7330    5.2125 N.am      9 SEC1        0.0000 
     67 N         -10.0415   85.0240    8.3555 N.am      9 SEC1        0.0000 
     68 N         -12.7895   91.8155   12.1830 N.am      9 SEC1        0.0000 
     69 N         -12.0915   92.6790   11.4245 N.am      9 SEC1        0.0000 
     70 N         -10.7360   93.0115    9.6925 N.am      9 SEC1        0.0000 
     71 N          -4.4210   88.7790    7.0585 N.am      9 SEC1        0.0000 
     72 N         -22.8730   83.0460    5.3875 N.am      9 SEC1        0.0000 
     73 N         -21.6395   86.6835    5.0975 N.am      9 SEC1        0.0000 
     74 N         -19.2025   85.0070    3.9510 N.am      9 SEC1        0.0000 
     75 N         -20.8045   87.0665    4.4060 N.am      9 SEC1        0.0000 
     76 O         -16.4585   83.1760    9.3060 O.2      10 ALC2        0.0000 
     77 O         -25.0570   89.6735    8.8620 O.2      10 ALC2        0.0000 
     78 O         -13.9100   89.5565   11.9045 O.2      10 ALC2        0.0000 
     79 O          -6.2540   87.7830    5.9605 O.2      10 ALC2        0.0000 
     80 NZ        -14.9865   85.0455    4.1000 N.4      11 LYC3        0.0000 
     81 NZ        -18.1455   84.2320    4.0540 N.4      11 LYC3        0.0000 
     82 NZ        -18.6910   85.3575    4.1890 N.4      11 LYC3        0.0000 
     83 NZ        -21.3865   87.1625    4.7115 N.4      11 LYC3        0.0000 
     84 CA        -14.9970   84.3175    6.3285 C.3      12 GLC5        0.0000 
     85 CA        -15.9955   83.4940    6.2315 C.3      12 GLC5        0.0000 
     86 CA        -19.8360   83.6325    7.8215 C.3      12 GLC5        0.0000 
     87 CA        -18.7150   87.0745   10.2460 C.3      12 GLC5        0.0000 
     88 CA        -10.3410   86.1810   10.3995 C.3      12 GLC5        0.0000 
     89 CA        -10.7550   88.8335   12.5140 C.3      12 GLC5        0.0000 
     90 CA        -10.6980   92.9550    9.4535 C.3      12 GLC5        0.0000 
     91 CA         -7.2465   88.5425    9.5505 C.3      12 GLC5        0.0000 
     92 CA         -5.5240   90.2940   10.9775 C.3      12 GLC5        0.0000 
     93 CA         -7.1290   93.4385   11.3640 C.3      12 GLC5        0.0000 
     94 CA         -6.4355   90.6800   11.9195 C.3      12 GLC5        0.0000 
@<TRIPOS>BOND
@<TRIPOS>SUBSTRUCTURE
     1 SEL1        1 GROUP        1 Z    SEL  0     ROOT SEL Z 0
     2 ALL2       13 GROUP        1 Z    ALL  0     **** ALL Z 1
     3 LYL3       17 GROUP        1 Z    LYL  0     **** LYL Z 2
     4 GLL5       20 GROUP        1 Z    GLL  0     **** GLL Z 4
     5 SEP1       30 GROUP        1 Z    SEP  0     **** SEP Z 7
     6 ALP2       44 GROUP        1 Z    ALP  0     **** ALP Z 8
     7 LYP3       48 GROUP        1 Z    LYP  0     **** LYP Z 9
     8 GLP5       50 GROUP        1 Z    GLP  0     **** GLP Z 11
     9 SEC1       60 GROUP        1 Z    SEC  0     **** SEC Z 14
    10 ALC2       76 GROUP        1 Z    ALC  0     **** ALC Z 15
    11 LYC3       80 GROUP        1 Z    LYC  0     **** LYC Z 16
    12 GLC5       84 GROUP        1 Z    GLC  0     **** GLC Z 18
@<TRIPOS>SET

