2b4q_NAP_1_ligand
  -OEChem-08111718373D

 73 77  0     1  0  0  0  0  0999 V2000
   -6.3022   92.6623   11.0282 H   0  0  0  0  0  0  0  0  0  0  0  0
   -5.4022   91.4277    9.1910 H   0  0  0  0  0  0  0  0  0  0  0  0
   -8.5969   92.3149   11.6609 H   0  0  0  0  0  0  0  0  0  0  0  0
   -9.0543   89.5123    8.6396 H   0  0  0  0  0  0  0  0  0  0  0  0
  -23.0236   86.0580   11.3620 H   0  0  0  0  0  0  0  0  0  0  0  0
  -18.9937   88.4476    6.8278 H   0  0  0  0  0  0  0  0  0  0  0  0
  -16.7708   84.2951    6.5792 H   0  0  0  0  0  0  0  0  0  0  0  0
  -13.1761   89.6302    9.5129 H   0  0  0  0  0  0  0  0  0  0  0  0
  -18.4406   85.7822    6.3732 H   0  0  0  0  0  0  0  0  0  0  0  0
  -11.2652   90.6449    8.8676 H   0  0  0  0  0  0  0  0  0  0  0  0
  -16.1658   84.9318    9.1303 H   0  0  0  0  0  0  0  0  0  0  0  0
  -12.2259   88.4803   11.7301 H   0  0  0  0  0  0  0  0  0  0  0  0
  -19.0493   85.3843    9.1340 H   0  0  0  0  0  0  0  0  0  0  0  0
  -10.4887   91.1743   11.5675 H   0  0  0  0  0  0  0  0  0  0  0  0
  -15.5533   86.9921    7.3166 H   0  0  0  0  0  0  0  0  0  0  0  0
  -14.5434   86.1850    8.3142 H   0  0  0  0  0  0  0  0  0  0  0  0
  -10.6645   87.3499    9.8455 H   0  0  0  0  0  0  0  0  0  0  0  0
  -12.0673   86.7457   10.4232 H   0  0  0  0  0  0  0  0  0  0  0  0
  -24.2983   90.0450    9.4273 H   0  0  0  0  0  0  0  0  0  0  0  0
  -23.0630   90.4274    8.2750 H   0  0  0  0  0  0  0  0  0  0  0  0
   -7.0269   88.1638    6.0895 H   0  0  0  0  0  0  0  0  0  0  0  0
   -8.3549   88.5025    7.1486 H   0  0  0  0  0  0  0  0  0  0  0  0
  -16.5498   82.7895    8.2904 H   0  0  0  0  0  0  0  0  0  0  0  0
  -13.5943   89.8124   11.9826 H   0  0  0  0  0  0  0  0  0  0  0  0
  -12.7511   92.3400    9.1855 H   0  0  0  0  0  0  0  0  0  0  0  0
   -6.8740   92.0090   10.5320 C   0  0  0  0  0  0  0  0  0  0  0  0
   -6.3560   91.2740    9.4490 C   0  0  0  0  0  0  0  0  0  0  0  0
   -8.2060   91.8030   10.8960 C   0  0  0  0  0  0  0  0  0  0  0  0
   -8.4630   90.1600    9.1200 C   0  0  0  0  0  0  0  0  0  0  0  0
  -22.6440   86.6630   10.6620 C   0  0  0  0  0  0  0  0  0  0  0  0
  -19.7150   88.2290    7.4850 C   0  0  0  0  0  0  0  0  0  0  0  0
   -7.1170   90.3120    8.6880 C   0  0  0  0  0  0  0  0  0  0  0  0
  -21.5540   88.3730    8.6770 C   0  0  0  0  0  0  0  0  0  0  0  0
  -20.8920   87.1820    9.0550 C   0  0  0  0  0  0  0  0  0  0  0  0
  -22.7780   88.7030    9.3100 C   0  0  0  0  0  0  0  0  0  0  0  0
   -6.6710   89.5150    7.5200 C   0  0  0  0  0  0  0  0  0  0  0  0
  -17.2640   84.4400    7.4370 C   0  0  1  0  0  0  0  0  0  0  0  0
  -12.5940   89.9320   10.2680 C   0  0  1  0  0  0  0  0  0  0  0  0
  -18.5860   85.1620    7.1440 C   0  0  2  0  0  0  0  0  0  0  0  0
  -11.5380   90.8970    9.7960 C   0  0  2  0  0  0  0  0  0  0  0  0
  -16.4780   85.4110    8.3100 C   0  0  1  0  0  0  0  0  0  0  0  0
  -11.8000   88.7580   10.8690 C   0  0  1  0  0  0  0  0  0  0  0  0
  -18.7550   85.9940    8.3980 C   0  0  2  0  0  0  0  0  0  0  0  0
  -10.3640   90.6120   10.7500 C   0  0  2  0  0  0  0  0  0  0  0  0
  -15.2670   86.0870    7.6310 C   0  0  1  0  0  0  0  0  0  0  0  0
  -11.6420   87.5250    9.9630 C   0  0  1  0  0  0  0  0  0  0  0  0
  -21.4260   86.3430   10.0230 N   0  0  0  0  0  0  0  0  0  0  0  0
  -23.3160   87.8450   10.3000 N   0  0  0  0  0  0  0  0  0  0  0  0
  -20.8150   88.9840    7.7240 N   0  0  0  0  0  0  0  0  0  0  0  0
  -19.7490   87.1050    8.2970 N   0  0  0  0  0  0  0  0  0  0  0  0
   -8.9920   90.8910   10.2020 N   0  3  0  0  0  0  0  0  0  0  0  0
  -23.4350   89.8190    8.9760 N   0  0  0  0  0  0  0  0  0  0  0  0
   -7.4080   88.6610    6.8690 N   0  0  0  0  0  0  0  0  0  0  0  0
  -21.6840   83.5910    5.4260 O   0  5  0  0  0  0  0  0  0  0  0  0
  -20.4920   85.6540    4.7510 O   0  5  0  0  0  0  0  0  0  0  0  0
  -13.0830   85.0300    4.5730 O   0  5  0  0  0  0  0  0  0  0  0  0
  -10.0930   86.5710    7.7310 O   0  5  0  0  0  0  0  0  0  0  0  0
   -5.5140   89.7230    7.2230 O   0  0  0  0  0  0  0  0  0  0  0  0
  -19.4010   83.4030    4.4810 O   0  0  0  0  0  0  0  0  0  0  0  0
  -13.7420   87.2820    5.1470 O   0  0  0  0  0  0  0  0  0  0  0  0
  -11.4230   88.2640    6.4030 O   0  0  0  0  0  0  0  0  0  0  0  0
  -17.4130   86.4240    8.6900 O   0  0  0  0  0  0  0  0  0  0  0  0
  -10.4960   89.2510   11.1320 O   0  0  0  0  0  0  0  0  0  0  0  0
  -17.4430   83.1920    8.0900 O   0  0  0  0  0  0  0  0  0  0  0  0
  -13.3590   90.5140   11.3100 O   0  0  0  0  0  0  0  0  0  0  0  0
  -11.9630   92.2410    9.7930 O   0  0  0  0  0  0  0  0  0  0  0  0
  -19.6960   84.3280    6.8420 O   0  0  0  0  0  0  0  0  0  0  0  0
  -14.7290   85.3820    6.5160 O   0  0  0  0  0  0  0  0  0  0  0  0
  -12.2200   87.6460    8.6860 O   0  0  0  0  0  0  0  0  0  0  0  0
  -12.2710   85.9010    6.8030 O   0  0  0  0  0  0  0  0  0  0  0  0
  -20.3310   84.2560    5.3550 P   0  0  0  0  0  0  0  0  0  0  0  0
  -13.4450   85.9390    5.6860 P   0  0  1  0  0  0  0  0  0  0  0  0
  -11.4190   87.1450    7.3720 P   0  0  2  0  0  0  0  0  0  0  0  0
  1 26  1  0  0  0  0
  2 27  1  0  0  0  0
  3 28  1  0  0  0  0
  4 29  1  0  0  0  0
  5 30  1  0  0  0  0
  6 31  1  0  0  0  0
  7 37  1  0  0  0  0
  8 38  1  0  0  0  0
  9 39  1  0  0  0  0
 10 40  1  0  0  0  0
 11 41  1  0  0  0  0
 12 42  1  0  0  0  0
 13 43  1  0  0  0  0
 14 44  1  0  0  0  0
 15 45  1  0  0  0  0
 16 45  1  0  0  0  0
 17 46  1  0  0  0  0
 18 46  1  0  0  0  0
 19 52  1  0  0  0  0
 20 52  1  0  0  0  0
 21 53  1  0  0  0  0
 22 53  1  0  0  0  0
 23 64  1  0  0  0  0
 24 65  1  0  0  0  0
 25 66  1  0  0  0  0
 26 27  1  0  0  0  0
 26 28  2  0  0  0  0
 27 32  2  0  0  0  0
 28 51  1  0  0  0  0
 29 32  1  0  0  0  0
 29 51  2  0  0  0  0
 30 47  1  0  0  0  0
 30 48  2  0  0  0  0
 31 49  2  0  0  0  0
 31 50  1  0  0  0  0
 32 36  1  0  0  0  0
 33 34  1  0  0  0  0
 33 35  2  0  0  0  0
 33 49  1  0  0  0  0
 34 47  2  0  0  0  0
 34 50  1  0  0  0  0
 35 48  1  0  0  0  0
 35 52  1  0  0  0  0
 36 53  1  0  0  0  0
 36 58  2  0  0  0  0
 37 39  1  0  0  0  0
 37 41  1  0  0  0  0
 37 64  1  0  0  0  0
 38 40  1  0  0  0  0
 38 42  1  0  0  0  0
 38 65  1  0  0  0  0
 39 43  1  0  0  0  0
 39 67  1  0  0  0  0
 40 44  1  0  0  0  0
 40 66  1  0  0  0  0
 41 45  1  0  0  0  0
 41 62  1  0  0  0  0
 42 46  1  0  0  0  0
 42 63  1  0  0  0  0
 43 50  1  0  0  0  0
 43 62  1  0  0  0  0
 44 51  1  0  0  0  0
 44 63  1  0  0  0  0
 45 68  1  0  0  0  0
 46 69  1  0  0  0  0
 54 71  1  0  0  0  0
 55 71  1  0  0  0  0
 56 72  1  0  0  0  0
 57 73  1  0  0  0  0
 59 71  2  0  0  0  0
 60 72  2  0  0  0  0
 61 73  2  0  0  0  0
 67 71  1  0  0  0  0
 68 72  1  0  0  0  0
 69 73  1  0  0  0  0
 70 72  1  0  0  0  0
 70 73  1  0  0  0  0
M  CHG  5  56  -1  57  -1  51   1  54  -1  55  -1
M  END
> <scpdb_id>
2b4q_1

$$$$
