@<TRIPOS>MOLECULE
2b4q_NAP_1_ligand
   73    77     1     0     0
SMALL
NO_CHARGES


@<TRIPOS>ATOM
     1 PA         -13.4450    85.9390     5.6860 P.3          1 NAP1901   0.0000
     2 O1A        -13.7420    87.2820     5.1470 O.co2        1 NAP1901   0.0000
     3 O2A        -13.0830    85.0300     4.5730 O.co2        1 NAP1901  -1.0000
     4 O5B        -14.7290    85.3820     6.5160 O.3          1 NAP1901   0.0000
     5 C5B        -15.2670    86.0870     7.6310 C.3          1 NAP1901   0.0000
     6 C4B        -16.4780    85.4110     8.3100 C.3          1 NAP1901   0.0000
     7 O4B        -17.4130    86.4240     8.6900 O.3          1 NAP1901   0.0000
     8 C3B        -17.2640    84.4400     7.4370 C.3          1 NAP1901   0.0000
     9 O3B        -17.4430    83.1920     8.0900 O.3          1 NAP1901   0.0000
    10 C2B        -18.5860    85.1620     7.1440 C.3          1 NAP1901   0.0000
    11 O2B        -19.6960    84.3280     6.8420 O.3          1 NAP1901   0.0000
    12 C1B        -18.7550    85.9940     8.3980 C.3          1 NAP1901   0.0000
    13 N9A        -19.7490    87.1050     8.2970 N.pl3        1 NAP1901   0.0000
    14 C8A        -19.7150    88.2290     7.4850 C.2          1 NAP1901   0.0000
    15 N7A        -20.8150    88.9840     7.7240 N.2          1 NAP1901   0.0000
    16 C5A        -21.5540    88.3730     8.6770 C.ar         1 NAP1901   0.0000
    17 C6A        -22.7780    88.7030     9.3100 C.ar         1 NAP1901   0.0000
    18 N6A        -23.4350    89.8190     8.9760 N.pl3        1 NAP1901   0.0000
    19 N1A        -23.3160    87.8450    10.3000 N.ar         1 NAP1901   0.0000
    20 C2A        -22.6440    86.6630    10.6620 C.ar         1 NAP1901   0.0000
    21 N3A        -21.4260    86.3430    10.0230 N.ar         1 NAP1901   0.0000
    22 C4A        -20.8920    87.1820     9.0550 C.ar         1 NAP1901   0.0000
    23 O3         -12.2710    85.9010     6.8030 O.3          1 NAP1901   0.0000
    24 PN         -11.4190    87.1450     7.3720 P.3          1 NAP1901   0.0000
    25 O1N        -11.4230    88.2640     6.4030 O.co2        1 NAP1901   0.0000
    26 O2N        -10.0930    86.5710     7.7310 O.co2        1 NAP1901  -1.0000
    27 O5D        -12.2200    87.6460     8.6860 O.3          1 NAP1901   0.0000
    28 C5D        -11.6420    87.5250     9.9630 C.3          1 NAP1901   0.0000
    29 C4D        -11.8000    88.7580    10.8690 C.3          1 NAP1901   0.0000
    30 O4D        -10.4960    89.2510    11.1320 O.3          1 NAP1901   0.0000
    31 C3D        -12.5940    89.9320    10.2680 C.3          1 NAP1901   0.0000
    32 O3D        -13.3590    90.5140    11.3100 O.3          1 NAP1901   0.0000
    33 C2D        -11.5380    90.8970     9.7960 C.3          1 NAP1901   0.0000
    34 O2D        -11.9630    92.2410     9.7930 O.3          1 NAP1901   0.0000
    35 C1D        -10.3640    90.6120    10.7500 C.3          1 NAP1901   0.0000
    36 N1N         -8.9920    90.8910    10.2020 N.ar         1 NAP1901   1.0000
    37 C2N         -8.4630    90.1600     9.1200 C.ar         1 NAP1901   0.0000
    38 C3N         -7.1170    90.3120     8.6880 C.ar         1 NAP1901   0.0000
    39 C7N         -6.6710    89.5150     7.5200 C.2          1 NAP1901   0.0000
    40 O7N         -5.5140    89.7230     7.2230 O.2          1 NAP1901   0.0000
    41 N7N         -7.4080    88.6610     6.8690 N.am         1 NAP1901   0.0000
    42 C4N         -6.3560    91.2740     9.4490 C.ar         1 NAP1901   0.0000
    43 C5N         -6.8740    92.0090    10.5320 C.ar         1 NAP1901   0.0000
    44 C6N         -8.2060    91.8030    10.8960 C.ar         1 NAP1901   0.0000
    45 P2B        -20.3310    84.2560     5.3550 P.3          1 NAP1901   0.0000
    46 O1X        -19.4010    83.4030     4.4810 O.co2        1 NAP1901   0.0000
    47 O2X        -21.6840    83.5910     5.4260 O.co2        1 NAP1901  -1.0000
    48 O3X        -20.4920    85.6540     4.7510 O.co2        1 NAP1901  -1.0000
    49 H5B1       -15.5533    86.9921     7.3166 H            1 NAP1901   0.0000
    50 H5B2       -14.5434    86.1850     8.3142 H            1 NAP1901   0.0000
    51 H4B        -16.1658    84.9318     9.1303 H            1 NAP1901   0.0000
    52 H3B        -16.7708    84.2951     6.5792 H            1 NAP1901   0.0000
    53 H5         -16.5498    82.7895     8.2904 H            1 NAP1901   0.0000
    54 H2B        -18.4406    85.7822     6.3732 H            1 NAP1901   0.0000
    55 H1B        -19.0493    85.3843     9.1340 H            1 NAP1901   0.0000
    56 H8A        -18.9937    88.4476     6.8278 H            1 NAP1901   0.0000
    57 H6A1       -24.2983    90.0450     9.4273 H            1 NAP1901   0.0000
    58 H6A2       -23.0630    90.4274     8.2750 H            1 NAP1901   0.0000
    59 H2A        -23.0236    86.0580    11.3620 H            1 NAP1901   0.0000
    60 H5D1       -10.6645    87.3499     9.8455 H            1 NAP1901   0.0000
    61 H5D2       -12.0673    86.7457    10.4232 H            1 NAP1901   0.0000
    62 H4D        -12.2259    88.4803    11.7301 H            1 NAP1901   0.0000
    63 H3D        -13.1761    89.6302     9.5129 H            1 NAP1901   0.0000
    64 H16        -13.5943    89.8124    11.9826 H            1 NAP1901   0.0000
    65 H2D        -11.2652    90.6449     8.8676 H            1 NAP1901   0.0000
    66 H18        -12.7511    92.3400     9.1855 H            1 NAP1901   0.0000
    67 H1D        -10.4887    91.1743    11.5675 H            1 NAP1901   0.0000
    68 H2N         -9.0543    89.5123     8.6396 H            1 NAP1901   0.0000
    69 H7N1        -7.0269    88.1638     6.0895 H            1 NAP1901   0.0000
    70 H7N2        -8.3549    88.5025     7.1486 H            1 NAP1901   0.0000
    71 H4N         -5.4022    91.4277     9.1910 H            1 NAP1901   0.0000
    72 H5N         -6.3022    92.6623    11.0282 H            1 NAP1901   0.0000
    73 H6N         -8.5969    92.3149    11.6609 H            1 NAP1901   0.0000
@<TRIPOS>BOND
     1    1    2      ar
     2    1    3      ar
     3    1    4       1
     4    1   23       1
     5    4    5       1
     6    5    6       1
     7    6    7       1
     8    6    8       1
     9    7   12       1
    10    8    9       1
    11    8   10       1
    12   10   11       1
    13   10   12       1
    14   11   45       1
    15   12   13       1
    16   13   14       1
    17   13   22       1
    18   14   15       2
    19   15   16       1
    20   16   17      ar
    21   16   22      ar
    22   17   18       1
    23   17   19      ar
    24   19   20      ar
    25   20   21      ar
    26   21   22      ar
    27   23   24       1
    28   24   25      ar
    29   24   26      ar
    30   24   27       1
    31   27   28       1
    32   28   29       1
    33   29   30       1
    34   29   31       1
    35   30   35       1
    36   31   32       1
    37   31   33       1
    38   33   34       1
    39   33   35       1
    40   35   36       1
    41   36   37      ar
    42   36   44      ar
    43   37   38      ar
    44   38   39       1
    45   38   42      ar
    46   39   40       2
    47   39   41      am
    48   42   43      ar
    49   43   44      ar
    50   45   46      ar
    51   45   47      ar
    52   45   48      ar
    53   43   72       1
    54    5   49       1
    55    5   50       1
    56    6   51       1
    57    8   52       1
    58    9   53       1
    59   10   54       1
    60   12   55       1
    61   14   56       1
    62   18   57       1
    63   18   58       1
    64   20   59       1
    65   44   73       1
    66   28   60       1
    67   28   61       1
    68   29   62       1
    69   31   63       1
    70   32   64       1
    71   33   65       1
    72   34   66       1
    73   35   67       1
    74   37   68       1
    75   41   69       1
    76   41   70       1
    77   42   71       1
@<TRIPOS>SUBSTRUCTURE
     1 NAP1901     1 GROUP             4 A     NAP     0 **** NAP A1901
