2d61_MAE_1_ligand
  -OEChem-08111718373D

 10  9  0     0  0  0  0  0  0999 V2000
   23.0696    8.9570  -11.8064 H   0  0  0  0  0  0  0  0  0  0  0  0
   22.6199    9.8809  -13.8866 H   0  0  0  0  0  0  0  0  0  0  0  0
   23.6800    9.6790  -12.1320 C   0  0  0  0  0  0  0  0  0  0  0  0
   23.4080   10.2320  -13.3810 C   0  0  0  0  0  0  0  0  0  0  0  0
   24.7330   10.0500  -11.3000 C   0  0  0  0  0  0  0  0  0  0  0  0
   24.1620   11.2410  -13.9700 C   0  0  0  0  0  0  0  0  0  0  0  0
   25.6030   10.8370  -11.7310 O   0  5  0  0  0  0  0  0  0  0  0  0
   25.2790   10.9490  -14.4510 O   0  5  0  0  0  0  0  0  0  0  0  0
   24.7580    9.5510  -10.1540 O   0  0  0  0  0  0  0  0  0  0  0  0
   23.6750   12.3930  -13.9810 O   0  0  0  0  0  0  0  0  0  0  0  0
  1  3  1  0  0  0  0
  2  4  1  0  0  0  0
  3  4  2  0  0  0  0
  3  5  1  0  0  0  0
  4  6  1  0  0  0  0
  5  7  1  0  0  0  0
  5  9  2  0  0  0  0
  6  8  1  0  0  0  0
  6 10  2  0  0  0  0
M  CHG  2   7  -1   8  -1
M  END
> <scpdb_id>
2d61_1

$$$$
