@<TRIPOS>MOLECULE
2d61_MAE_1_ligand
   10     9     1     0     0
SMALL
NO_CHARGES


@<TRIPOS>ATOM
     1 C1          24.7330    10.0500   -11.3000 C.2          1 MAE414   0.0000
     2 O1          24.7580     9.5510   -10.1540 O.co2        1 MAE414   0.0000
     3 O2          25.6030    10.8370   -11.7310 O.co2        1 MAE414  -1.0000
     4 C2          23.6800     9.6790   -12.1320 C.2          1 MAE414   0.0000
     5 C3          23.4080    10.2320   -13.3810 C.2          1 MAE414   0.0000
     6 C4          24.1620    11.2410   -13.9700 C.2          1 MAE414   0.0000
     7 O3          23.6750    12.3930   -13.9810 O.co2        1 MAE414   0.0000
     8 O4          25.2790    10.9490   -14.4510 O.co2        1 MAE414  -1.0000
     9 H1          23.0696     8.9570   -11.8064 H            1 MAE414   0.0000
    10 H2          22.6199     9.8809   -13.8866 H            1 MAE414   0.0000
@<TRIPOS>BOND
     1    1    2      ar
     2    1    3      ar
     3    1    4       1
     4    4    5       2
     5    5    6       1
     6    6    7      ar
     7    6    8      ar
     8    5   10       1
     9    4    9       1
@<TRIPOS>SUBSTRUCTURE
     1 MAE414      1 GROUP             4 A     MAE     0 **** MAE A 414
