#    Name: 11694
#    Modification time : Tue Aug  8 23:28:20 2017

@<TRIPOS>MOLECULE
11694
  104     0     9     0     0
SMALL
NO_CHARGES


@<TRIPOS>ATOM
      1 N          19.2060   35.7660   40.1140 N.am      1 SEL1        0.0000 
      2 N          21.6840   36.1570   40.4410 N.am      1 SEL1        0.0000 
      3 N          20.3830   34.6640   42.0780 N.am      1 SEL1        0.0000 
      4 N          19.1920   35.3730   45.3570 N.am      1 SEL1        0.0000 
      5 N          24.4450   32.0520   50.4470 N.am      1 SEL1        0.0000 
      6 N          22.6160   32.5590   48.9640 N.am      1 SEL1        0.0000 
      7 N          17.1250   28.9540   36.1040 N.am      1 SEL1        0.0000 
      8 N          15.0150   27.4490   32.3550 N.am      1 SEL1        0.0000 
      9 N          15.0450   29.9200   31.2510 N.am      1 SEL1        0.0000 
     10 N          19.6290   32.3660   38.1700 N.am      1 SEL1        0.0000 
     11 N          18.8360   32.5060   40.5690 N.am      1 SEL1        0.0000 
     12 N          21.0430   31.4160   39.9980 N.am      1 SEL1        0.0000 
     13 O          20.7610   36.0730   47.3050 O.2       2 ALL2        0.0000 
     14 O          26.6240   32.8540   50.0860 O.2       2 ALL2        0.0000 
     15 O          16.0010   28.1200   34.3050 O.2       2 ALL2        0.0000 
     16 O          15.6790   34.6170   34.0790 O.2       2 ALL2        0.0000 
     17 CA         21.5050   34.3520   42.8720 C.3       3 GLL5        0.0000 
     18 CA         14.6160   31.4760   29.4660 C.3       3 GLL5        0.0000 
     19 CA         14.1160   32.9190   27.5330 C.3       3 GLL5        0.0000 
     20 CA         15.4350   35.2240   29.1140 C.3       3 GLL5        0.0000 
     21 CA         15.8130   32.2110   31.4300 C.3       3 GLL5        0.0000 
     22 CA         17.2090   32.9310   33.3800 C.3       3 GLL5        0.0000 
     23 CA         18.1340   32.8280   36.3260 C.3       3 GLL5        0.0000 
     24 CA         18.8450   33.3650   37.5710 C.3       3 GLL5        0.0000 
     25 CA         20.5620   35.4400   44.9800 C.3       3 GLL5        0.0000 
     26 CA         14.7240   32.7460   28.9070 C.3       3 GLL5        0.0000 
     27 CA         16.4400   33.5290   34.5520 C.3       3 GLL5        0.0000 
     28 CA         17.4000   34.0020   35.6430 C.3       3 GLL5        0.0000 
     29 CA         15.9070   33.5010   30.8790 C.3       3 GLL5        0.0000 
     30 N          16.8440   34.9440   41.2420 N.am      4 SEP1        0.0000 
     31 N          23.9840   35.5660   38.6490 N.am      4 SEP1        0.0000 
     32 N          17.6990   32.7900   43.0800 N.am      4 SEP1        0.0000 
     33 N          18.4330   33.0040   47.1100 N.am      4 SEP1        0.0000 
     34 N          24.6960   29.9490   52.2710 N.am      4 SEP1        0.0000 
     35 N          20.6520   33.8860   51.1390 N.am      4 SEP1        0.0000 
     36 N          15.9850   27.4620   38.3720 N.am      4 SEP1        0.0000 
     37 N          19.8700   28.7120   35.1780 N.am      4 SEP1        0.0000 
     38 N          18.1870   27.6700   31.9670 N.am      4 SEP1        0.0000 
     39 N          14.5420   24.6020   30.4150 N.am      4 SEP1        0.0000 
     40 N          12.9390   26.7420   29.9850 N.am      4 SEP1        0.0000 
     41 N          15.9260   27.3680   29.2370 N.am      4 SEP1        0.0000 
     42 N          20.9500   29.3270   38.1820 N.am      4 SEP1        0.0000 
     43 N          23.5790   30.9110   40.9640 N.am      4 SEP1        0.0000 
     44 O          19.0350   34.5290   48.6880 O.2       5 ALP2        0.0000 
     45 O          27.2390   31.7170   52.3890 O.2       5 ALP2        0.0000 
     46 O          15.4210   25.8160   35.5790 O.2       5 ALP2        0.0000 
     47 O          12.9191   34.6161   33.8974 O.2       5 ALP2        0.0000 
     48 CA         24.3260   33.1260   40.3320 C.3       6 GLP5        0.0000 
     49 CA         14.7440   27.4270   28.4320 C.3       6 GLP5        0.0000 
     50 CA         14.4930   35.4620   24.8440 C.3       6 GLP5        0.0000 
     51 CA         13.1570   30.2360   25.1150 C.3       6 GLP5        0.0000 
     52 CA         10.1990   32.7800   26.4220 C.3       6 GLP5        0.0000 
     53 CA         17.3840   31.7690   25.6980 C.3       6 GLP5        0.0000 
     54 CA         13.2370   37.8800   31.1860 C.3       6 GLP5        0.0000 
     55 CA         13.2550   36.1040   25.4860 C.3       6 GLP5        0.0000 
     56 CA         20.0540   31.7960   31.4470 C.3       6 GLP5        0.0000 
     57 CA         12.8820   31.7800   33.3810 C.3       6 GLP5        0.0000 
     58 CA         19.6720   30.1010   33.1900 C.3       6 GLP5        0.0000 
     59 CA         22.8280   32.2790   36.9900 C.3       6 GLP5        0.0000 
     60 CA         17.0610   35.1630   42.6320 C.3       6 GLP5        0.0000 
     61 CA         14.1120   28.7650   28.5990 C.3       6 GLP5        0.0000 
     62 CA         14.3200   34.3460   37.6740 C.3       6 GLP5        0.0000 
     63 CA         12.3350   32.8230   32.3970 C.3       6 GLP5        0.0000 
     64 CA         17.8340   30.7930   27.9270 C.3       6 GLP5        0.0000 
     65 N          18.0250   35.3550   40.6780 N.am      7 SEC1        0.0000 
     66 N          22.8340   35.8615   39.5450 N.am      7 SEC1        0.0000 
     67 N          19.0410   33.7270   42.5790 N.am      7 SEC1        0.0000 
     68 N          18.8125   34.1885   46.2335 N.am      7 SEC1        0.0000 
     69 N          24.5705   31.0005   51.3590 N.am      7 SEC1        0.0000 
     70 N          21.6340   33.2225   50.0515 N.am      7 SEC1        0.0000 
     71 N          16.5550   28.2080   37.2380 N.am      7 SEC1        0.0000 
     72 N          18.4975   28.8330   35.6410 N.am      7 SEC1        0.0000 
     73 N          16.6010   27.5595   32.1610 N.am      7 SEC1        0.0000 
     74 N          14.7785   26.0255   31.3850 N.am      7 SEC1        0.0000 
     75 N          13.9770   27.0955   31.1700 N.am      7 SEC1        0.0000 
     76 N          15.4705   27.4085   30.7960 N.am      7 SEC1        0.0000 
     77 N          15.4855   28.6440   30.2440 N.am      7 SEC1        0.0000 
     78 N          20.2895   30.8465   38.1760 N.am      7 SEC1        0.0000 
     79 N          18.2675   32.6480   41.8245 N.am      7 SEC1        0.0000 
     80 N          22.3110   31.1635   40.4810 N.am      7 SEC1        0.0000 
     81 N          20.9965   30.3715   39.0900 N.am      7 SEC1        0.0000 
     82 O          19.8980   35.3010   47.9965 O.2       8 ALC2        0.0000 
     83 O          26.9315   32.2855   51.2375 O.2       8 ALC2        0.0000 
     84 O          15.7110   26.9680   34.9420 O.2       8 ALC2        0.0000 
     85 O          14.2991   34.6166   33.9882 O.2       8 ALC2        0.0000 
     86 CA         22.9155   33.7390   41.6020 C.3       9 GLC5        0.0000 
     87 CA         14.6800   29.4515   28.9490 C.3       9 GLC5        0.0000 
     88 CA         14.3045   34.1905   26.1885 C.3       9 GLC5        0.0000 
     89 CA         13.6365   31.5775   26.3240 C.3       9 GLC5        0.0000 
     90 CA         12.1575   32.8495   26.9775 C.3       9 GLC5        0.0000 
     91 CA         15.7500   32.3440   26.6155 C.3       9 GLC5        0.0000 
     92 CA         14.3360   36.5520   30.1500 C.3       9 GLC5        0.0000 
     93 CA         14.3450   35.6640   27.3000 C.3       9 GLC5        0.0000 
     94 CA         17.9335   32.0035   31.4385 C.3       9 GLC5        0.0000 
     95 CA         14.3475   31.9955   32.4055 C.3       9 GLC5        0.0000 
     96 CA         18.6315   32.3635   32.4135 C.3       9 GLC5        0.0000 
     97 CA         18.9030   31.4645   34.7580 C.3       9 GLC5        0.0000 
     98 CA         20.8365   32.8220   37.2805 C.3       9 GLC5        0.0000 
     99 CA         18.9243   34.9755   43.6375 C.3       9 GLC5        0.0000 
    100 CA         14.2660   30.7987   28.4095 C.3       9 GLC5        0.0000 
    101 CA         14.8533   32.5050   33.6735 C.3       9 GLC5        0.0000 
    102 CA         15.9235   33.8214   36.6929 C.3       9 GLC5        0.0000 
    103 CA         13.8331   33.0597   31.1104 C.3       9 GLC5        0.0000 
    104 CA         16.6042   31.8656   29.0233 C.3       9 GLC5        0.0000 
@<TRIPOS>BOND
@<TRIPOS>SUBSTRUCTURE
     1 SEL1        1 GROUP        1 Z    SEL  0     ROOT SEL Z 0
     2 ALL2       13 GROUP        1 Z    ALL  0     **** ALL Z 1
     3 GLL5       17 GROUP        1 Z    GLL  0     **** GLL Z 4
     4 SEP1       30 GROUP        1 Z    SEP  0     **** SEP Z 7
     5 ALP2       44 GROUP        1 Z    ALP  0     **** ALP Z 8
     6 GLP5       48 GROUP        1 Z    GLP  0     **** GLP Z 11
     7 SEC1       65 GROUP        1 Z    SEC  0     **** SEC Z 14
     8 ALC2       82 GROUP        1 Z    ALC  0     **** ALC Z 15
     9 GLC5       86 GROUP        1 Z    GLC  0     **** GLC Z 18
@<TRIPOS>SET

