2a1u_FAD_1_ligand
  -OEChem-08111718373D

 84 89  0     1  0  0  0  0  0999 V2000
   14.1401   30.7550   28.9623 H   0  0  0  0  0  0  0  0  0  0  0  0
   16.3613   34.2257   31.3971 H   0  0  0  0  0  0  0  0  0  0  0  0
   22.4879   31.3969   50.6623 H   0  0  0  0  0  0  0  0  0  0  0  0
   24.6119   35.1670   45.9210 H   0  0  0  0  0  0  0  0  0  0  0  0
   20.7127   36.2149   44.3661 H   0  0  0  0  0  0  0  0  0  0  0  0
   22.2465   36.1439   45.9904 H   0  0  0  0  0  0  0  0  0  0  0  0
   20.2554   33.4833   44.3033 H   0  0  0  0  0  0  0  0  0  0  0  0
   21.2510   33.6149   46.9140 H   0  0  0  0  0  0  0  0  0  0  0  0
   14.2481   33.8616   27.2263 H   0  0  0  0  0  0  0  0  0  0  0  0
   14.5602   32.2942   26.8909 H   0  0  0  0  0  0  0  0  0  0  0  0
   13.1377   32.7156   27.5734 H   0  0  0  0  0  0  0  0  0  0  0  0
   15.9404   35.7845   29.7700 H   0  0  0  0  0  0  0  0  0  0  0  0
   15.8980   35.2487   28.2280 H   0  0  0  0  0  0  0  0  0  0  0  0
   14.5066   35.5822   29.0151 H   0  0  0  0  0  0  0  0  0  0  0  0
   22.1609   35.1064   42.8467 H   0  0  0  0  0  0  0  0  0  0  0  0
   21.9418   33.5190   42.5324 H   0  0  0  0  0  0  0  0  0  0  0  0
   17.4606   33.6577   32.7408 H   0  0  0  0  0  0  0  0  0  0  0  0
   18.0367   32.4831   33.7181 H   0  0  0  0  0  0  0  0  0  0  0  0
   18.1607   33.6820   38.2277 H   0  0  0  0  0  0  0  0  0  0  0  0
   19.4336   34.1294   37.3078 H   0  0  0  0  0  0  0  0  0  0  0  0
   15.8257   32.8368   34.9308 H   0  0  0  0  0  0  0  0  0  0  0  0
   18.7933   32.4149   35.6977 H   0  0  0  0  0  0  0  0  0  0  0  0
   16.8719   34.4906   36.3376 H   0  0  0  0  0  0  0  0  0  0  0  0
   15.9262   27.2075   34.7073 H   0  0  0  0  0  0  0  0  0  0  0  0
   26.9227   32.3816   50.9152 H   0  0  0  0  0  0  0  0  0  0  0  0
   27.2844   33.3663   49.5370 H   0  0  0  0  0  0  0  0  0  0  0  0
   18.7925   36.2892   45.3260 H   0  0  0  0  0  0  0  0  0  0  0  0
   20.3554   35.3211   47.8247 H   0  0  0  0  0  0  0  0  0  0  0  0
   14.7089   34.4443   34.2494 H   0  0  0  0  0  0  0  0  0  0  0  0
   17.0006   31.2354   35.9435 H   0  0  0  0  0  0  0  0  0  0  0  0
   18.6184   35.5517   35.7824 H   0  0  0  0  0  0  0  0  0  0  0  0
   14.6160   31.4760   29.4660 C   0  0  0  0  0  0  0  0  0  0  0  0
   15.9070   33.5010   30.8790 C   0  0  0  0  0  0  0  0  0  0  0  0
   23.1050   31.9380   50.0910 C   0  0  0  0  0  0  0  0  0  0  0  0
   24.4560   34.5890   46.7220 C   0  0  0  0  0  0  0  0  0  0  0  0
   14.7240   32.7460   28.9070 C   0  0  0  0  0  0  0  0  0  0  0  0
   15.3740   33.7870   29.6150 C   0  0  0  0  0  0  0  0  0  0  0  0
   15.1610   31.1940   30.7170 C   0  0  0  0  0  0  0  0  0  0  0  0
   24.8190   33.4340   48.5560 C   0  0  0  0  0  0  0  0  0  0  0  0
   15.8130   32.2110   31.4300 C   0  0  0  0  0  0  0  0  0  0  0  0
   15.5870   29.6440   32.5020 C   0  0  0  0  0  0  0  0  0  0  0  0
   23.4710   33.3070   48.2250 C   0  0  0  0  0  0  0  0  0  0  0  0
   25.3270   32.8000   49.7070 C   0  0  0  0  0  0  0  0  0  0  0  0
   15.4700   28.3730   33.0550 C   0  0  0  0  0  0  0  0  0  0  0  0
   16.2240   30.6520   33.2070 C   0  0  0  0  0  0  0  0  0  0  0  0
   16.6380   29.1370   34.9990 C   0  0  0  0  0  0  0  0  0  0  0  0
   20.5620   35.4400   44.9800 C   0  0  1  0  0  0  0  0  0  0  0  0
   21.4670   35.5540   46.2010 C   0  0  2  0  0  0  0  0  0  0  0  0
   21.0130   34.1360   44.3060 C   0  0  1  0  0  0  0  0  0  0  0  0
   21.9420   34.1350   46.4120 C   0  0  2  0  0  0  0  0  0  0  0  0
   14.1160   32.9190   27.5330 C   0  0  0  0  0  0  0  0  0  0  0  0
   15.4350   35.2240   29.1140 C   0  0  0  0  0  0  0  0  0  0  0  0
   21.5050   34.3520   42.8720 C   0  0  1  0  0  0  0  0  0  0  0  0
   17.2090   32.9310   33.3800 C   0  0  1  0  0  0  0  0  0  0  0  0
   18.8450   33.3650   37.5710 C   0  0  2  0  0  0  0  0  0  0  0  0
   16.4400   33.5290   34.5520 C   0  0  1  0  0  0  0  0  0  0  0  0
   18.1340   32.8280   36.3260 C   0  0  2  0  0  0  0  0  0  0  0  0
   17.4000   34.0020   35.6430 C   0  0  1  0  0  0  0  0  0  0  0  0
   22.6160   32.5590   48.9640 N   0  0  0  0  0  0  0  0  0  0  0  0
   24.4450   32.0520   50.4470 N   0  0  0  0  0  0  0  0  0  0  0  0
   25.3830   34.2150   47.6220 N   0  0  0  0  0  0  0  0  0  0  0  0
   15.0450   29.9200   31.2510 N   0  0  0  0  0  0  0  0  0  0  0  0
   16.7360   30.3990   34.4550 N   0  0  0  0  0  0  0  0  0  0  0  0
   16.0010   28.1200   34.3050 N   0  0  0  0  0  0  0  0  0  0  0  0
   23.2520   34.0330   47.1010 N   0  0  0  0  0  0  0  0  0  0  0  0
   16.3440   31.9210   32.6760 N   0  0  0  0  0  0  0  0  0  0  0  0
   26.6240   32.8540   50.0860 N   0  0  0  0  0  0  0  0  0  0  0  0
   21.6840   36.1570   40.4410 O   0  5  0  0  0  0  0  0  0  0  0  0
   21.0430   31.4160   39.9980 O   0  5  0  0  0  0  0  0  0  0  0  0
   15.0150   27.4490   32.3550 O   0  0  0  0  0  0  0  0  0  0  0  0
   17.1250   28.9540   36.1040 O   0  0  0  0  0  0  0  0  0  0  0  0
   19.2060   35.7660   40.1140 O   0  0  0  0  0  0  0  0  0  0  0  0
   18.8360   32.5060   40.5690 O   0  0  0  0  0  0  0  0  0  0  0  0
   22.0650   33.6330   45.1070 O   0  0  0  0  0  0  0  0  0  0  0  0
   19.1920   35.3730   45.3570 O   0  0  0  0  0  0  0  0  0  0  0  0
   20.7610   36.0730   47.3050 O   0  0  0  0  0  0  0  0  0  0  0  0
   15.6790   34.6170   34.0790 O   0  0  0  0  0  0  0  0  0  0  0  0
   17.1380   31.8830   36.6930 O   0  0  0  0  0  0  0  0  0  0  0  0
   18.3310   34.8930   35.0870 O   0  0  0  0  0  0  0  0  0  0  0  0
   20.3830   34.6640   42.0780 O   0  0  0  0  0  0  0  0  0  0  0  0
   19.6290   32.3660   38.1700 O   0  0  0  0  0  0  0  0  0  0  0  0
   20.8630   33.9230   39.6550 O   0  0  0  0  0  0  0  0  0  0  0  0
   20.5340   35.2020   40.5570 P   0  0  2  0  0  0  0  0  0  0  0  0
   20.0770   32.5330   39.6850 P   0  0  2  0  0  0  0  0  0  0  0  0
  1 32  1  0  0  0  0
  2 33  1  0  0  0  0
  3 34  1  0  0  0  0
  4 35  1  0  0  0  0
  5 47  1  0  0  0  0
  6 48  1  0  0  0  0
  7 49  1  0  0  0  0
  8 50  1  0  0  0  0
  9 51  1  0  0  0  0
 10 51  1  0  0  0  0
 11 51  1  0  0  0  0
 12 52  1  0  0  0  0
 13 52  1  0  0  0  0
 14 52  1  0  0  0  0
 15 53  1  0  0  0  0
 16 53  1  0  0  0  0
 17 54  1  0  0  0  0
 18 54  1  0  0  0  0
 19 55  1  0  0  0  0
 20 55  1  0  0  0  0
 21 56  1  0  0  0  0
 22 57  1  0  0  0  0
 23 58  1  0  0  0  0
 24 64  1  0  0  0  0
 25 67  1  0  0  0  0
 26 67  1  0  0  0  0
 27 75  1  0  0  0  0
 28 76  1  0  0  0  0
 29 77  1  0  0  0  0
 30 78  1  0  0  0  0
 31 79  1  0  0  0  0
 32 36  1  0  0  0  0
 32 38  2  0  0  0  0
 33 37  1  0  0  0  0
 33 40  2  0  0  0  0
 34 59  1  0  0  0  0
 34 60  2  0  0  0  0
 35 61  2  0  0  0  0
 35 65  1  0  0  0  0
 36 37  2  0  0  0  0
 36 51  1  0  0  0  0
 37 52  1  0  0  0  0
 38 40  1  0  0  0  0
 38 62  1  0  0  0  0
 39 42  1  0  0  0  0
 39 43  2  0  0  0  0
 39 61  1  0  0  0  0
 40 66  1  0  0  0  0
 41 44  1  0  0  0  0
 41 45  1  0  0  0  0
 41 62  2  0  0  0  0
 42 59  2  0  0  0  0
 42 65  1  0  0  0  0
 43 60  1  0  0  0  0
 43 67  1  0  0  0  0
 44 64  1  0  0  0  0
 44 70  2  0  0  0  0
 45 63  2  0  0  0  0
 45 66  1  0  0  0  0
 46 63  1  0  0  0  0
 46 64  1  0  0  0  0
 46 71  2  0  0  0  0
 47 48  1  0  0  0  0
 47 49  1  0  0  0  0
 47 75  1  0  0  0  0
 48 50  1  0  0  0  0
 48 76  1  0  0  0  0
 49 53  1  0  0  0  0
 49 74  1  0  0  0  0
 50 65  1  0  0  0  0
 50 74  1  0  0  0  0
 53 80  1  0  0  0  0
 54 56  1  0  0  0  0
 54 66  1  0  0  0  0
 55 57  1  0  0  0  0
 55 81  1  0  0  0  0
 56 58  1  0  0  0  0
 56 77  1  0  0  0  0
 57 58  1  0  0  0  0
 57 78  1  0  0  0  0
 58 79  1  0  0  0  0
 68 83  1  0  0  0  0
 69 84  1  0  0  0  0
 72 83  2  0  0  0  0
 73 84  2  0  0  0  0
 80 83  1  0  0  0  0
 81 84  1  0  0  0  0
 82 83  1  0  0  0  0
 82 84  1  0  0  0  0
M  CHG  2  68  -1  69  -1
M  END
> <scpdb_id>
2a1u_1

$$$$
