@<TRIPOS>MOLECULE
2a1u_FAD_1_ligand
   84    89     1     0     0
SMALL
NO_CHARGES


@<TRIPOS>ATOM
     1 PA          20.5340    35.2020    40.5570 P.3          1 FAD599   0.0000
     2 O1A         19.2060    35.7660    40.1140 O.co2        1 FAD599   0.0000
     3 O2A         21.6840    36.1570    40.4410 O.co2        1 FAD599  -1.0000
     4 O5B         20.3830    34.6640    42.0780 O.3          1 FAD599   0.0000
     5 C5B         21.5050    34.3520    42.8720 C.3          1 FAD599   0.0000
     6 C4B         21.0130    34.1360    44.3060 C.3          1 FAD599   0.0000
     7 O4B         22.0650    33.6330    45.1070 O.3          1 FAD599   0.0000
     8 C3B         20.5620    35.4400    44.9800 C.3          1 FAD599   0.0000
     9 O3B         19.1920    35.3730    45.3570 O.3          1 FAD599   0.0000
    10 C2B         21.4670    35.5540    46.2010 C.3          1 FAD599   0.0000
    11 O2B         20.7610    36.0730    47.3050 O.3          1 FAD599   0.0000
    12 C1B         21.9420    34.1350    46.4120 C.3          1 FAD599   0.0000
    13 N9A         23.2520    34.0330    47.1010 N.pl3        1 FAD599   0.0000
    14 C8A         24.4560    34.5890    46.7220 C.2          1 FAD599   0.0000
    15 N7A         25.3830    34.2150    47.6220 N.2          1 FAD599   0.0000
    16 C5A         24.8190    33.4340    48.5560 C.ar         1 FAD599   0.0000
    17 C6A         25.3270    32.8000    49.7070 C.ar         1 FAD599   0.0000
    18 N6A         26.6240    32.8540    50.0860 N.pl3        1 FAD599   0.0000
    19 N1A         24.4450    32.0520    50.4470 N.ar         1 FAD599   0.0000
    20 C2A         23.1050    31.9380    50.0910 C.ar         1 FAD599   0.0000
    21 N3A         22.6160    32.5590    48.9640 N.ar         1 FAD599   0.0000
    22 C4A         23.4710    33.3070    48.2250 C.ar         1 FAD599   0.0000
    23 N1          16.7360    30.3990    34.4550 N.2          1 FAD599   0.0000
    24 C2          16.6380    29.1370    34.9990 C.2          1 FAD599   0.0000
    25 O2          17.1250    28.9540    36.1040 O.2          1 FAD599   0.0000
    26 N3          16.0010    28.1200    34.3050 N.pl3        1 FAD599   0.0000
    27 C4          15.4700    28.3730    33.0550 C.2          1 FAD599   0.0000
    28 O4          15.0150    27.4490    32.3550 O.2          1 FAD599   0.0000
    29 C4X         15.5870    29.6440    32.5020 C.2          1 FAD599   0.0000
    30 N5          15.0450    29.9200    31.2510 N.2          1 FAD599   0.0000
    31 C5X         15.1610    31.1940    30.7170 C.ar         1 FAD599   0.0000
    32 C6          14.6160    31.4760    29.4660 C.ar         1 FAD599   0.0000
    33 C7          14.7240    32.7460    28.9070 C.ar         1 FAD599   0.0000
    34 C7M         14.1160    32.9190    27.5330 C.3          1 FAD599   0.0000
    35 C8          15.3740    33.7870    29.6150 C.ar         1 FAD599   0.0000
    36 C8M         15.4350    35.2240    29.1140 C.3          1 FAD599   0.0000
    37 C9          15.9070    33.5010    30.8790 C.ar         1 FAD599   0.0000
    38 C9A         15.8130    32.2110    31.4300 C.ar         1 FAD599   0.0000
    39 N10         16.3440    31.9210    32.6760 N.pl3        1 FAD599   0.0000
    40 C10         16.2240    30.6520    33.2070 C.2          1 FAD599   0.0000
    41 C1'         17.2090    32.9310    33.3800 C.3          1 FAD599   0.0000
    42 C2'         16.4400    33.5290    34.5520 C.3          1 FAD599   0.0000
    43 O2'         15.6790    34.6170    34.0790 O.3          1 FAD599   0.0000
    44 C3'         17.4000    34.0020    35.6430 C.3          1 FAD599   0.0000
    45 O3'         18.3310    34.8930    35.0870 O.3          1 FAD599   0.0000
    46 C4'         18.1340    32.8280    36.3260 C.3          1 FAD599   0.0000
    47 O4'         17.1380    31.8830    36.6930 O.3          1 FAD599   0.0000
    48 C5'         18.8450    33.3650    37.5710 C.3          1 FAD599   0.0000
    49 O5'         19.6290    32.3660    38.1700 O.3          1 FAD599   0.0000
    50 P           20.0770    32.5330    39.6850 P.3          1 FAD599   0.0000
    51 O1P         18.8360    32.5060    40.5690 O.co2        1 FAD599   0.0000
    52 O2P         21.0430    31.4160    39.9980 O.co2        1 FAD599  -1.0000
    53 O3P         20.8630    33.9230    39.6550 O.3          1 FAD599   0.0000
    54 H5B1        22.1609    35.1064    42.8467 H            1 FAD599   0.0000
    55 H5B2        21.9418    33.5190    42.5324 H            1 FAD599   0.0000
    56 H4B         20.2554    33.4833    44.3033 H            1 FAD599   0.0000
    57 H3B         20.7127    36.2149    44.3661 H            1 FAD599   0.0000
    58 H5          18.7925    36.2892    45.3260 H            1 FAD599   0.0000
    59 H2B         22.2465    36.1439    45.9904 H            1 FAD599   0.0000
    60 H7          20.3554    35.3211    47.8247 H            1 FAD599   0.0000
    61 H1B         21.2510    33.6149    46.9140 H            1 FAD599   0.0000
    62 H8A         24.6119    35.1670    45.9210 H            1 FAD599   0.0000
    63 H6A1        26.9227    32.3816    50.9152 H            1 FAD599   0.0000
    64 H6A2        27.2844    33.3663    49.5370 H            1 FAD599   0.0000
    65 H2A         22.4879    31.3969    50.6623 H            1 FAD599   0.0000
    66 H13         15.9262    27.2075    34.7073 H            1 FAD599   0.0000
    67 H14         14.1401    30.7550    28.9623 H            1 FAD599   0.0000
    68 H7M1        14.2481    33.8616    27.2263 H            1 FAD599   0.0000
    69 H7M2        14.5602    32.2942    26.8909 H            1 FAD599   0.0000
    70 H7M3        13.1377    32.7156    27.5734 H            1 FAD599   0.0000
    71 H8M1        15.9404    35.7845    29.7700 H            1 FAD599   0.0000
    72 H8M2        15.8980    35.2487    28.2280 H            1 FAD599   0.0000
    73 H8M3        14.5066    35.5822    29.0151 H            1 FAD599   0.0000
    74 H21         16.3613    34.2257    31.3971 H            1 FAD599   0.0000
    75 H1'1        17.4606    33.6577    32.7408 H            1 FAD599   0.0000
    76 H1'2        18.0367    32.4831    33.7181 H            1 FAD599   0.0000
    77 H2'         15.8257    32.8368    34.9308 H            1 FAD599   0.0000
    78 H25         14.7089    34.4443    34.2494 H            1 FAD599   0.0000
    79 H3'         16.8719    34.4906    36.3376 H            1 FAD599   0.0000
    80 H27         18.6184    35.5517    35.7824 H            1 FAD599   0.0000
    81 H4'         18.7933    32.4149    35.6977 H            1 FAD599   0.0000
    82 H29         17.0006    31.2354    35.9435 H            1 FAD599   0.0000
    83 H5'1        18.1607    33.6820    38.2277 H            1 FAD599   0.0000
    84 H5'2        19.4336    34.1294    37.3078 H            1 FAD599   0.0000
@<TRIPOS>BOND
     1    1    2      ar
     2    1    3      ar
     3    1    4       1
     4    1   53       1
     5    4    5       1
     6    5    6       1
     7    6    7       1
     8    6    8       1
     9    7   12       1
    10    8    9       1
    11    8   10       1
    12   10   11       1
    13   10   12       1
    14   12   13       1
    15   13   14       1
    16   13   22       1
    17   14   15       2
    18   15   16       1
    19   16   17      ar
    20   16   22      ar
    21   17   18       1
    22   17   19      ar
    23   19   20      ar
    24   20   21      ar
    25   21   22      ar
    26   23   24       1
    27   23   40       2
    28   24   25       2
    29   24   26       1
    30   26   27       1
    31   27   28       2
    32   27   29       1
    33   29   30       2
    34   29   40       1
    35   30   31       1
    36   31   32      ar
    37   31   38      ar
    38   32   33      ar
    39   33   34       1
    40   33   35      ar
    41   35   36       1
    42   35   37      ar
    43   37   38      ar
    44   38   39       1
    45   39   40       1
    46   39   41       1
    47   41   42       1
    48   42   43       1
    49   42   44       1
    50   44   45       1
    51   44   46       1
    52   46   47       1
    53   46   48       1
    54   48   49       1
    55   49   50       1
    56   50   51      ar
    57   50   52      ar
    58   50   53       1
    59   48   84       1
    60    5   54       1
    61    5   55       1
    62    6   56       1
    63    8   57       1
    64    9   58       1
    65   10   59       1
    66   11   60       1
    67   12   61       1
    68   14   62       1
    69   18   63       1
    70   18   64       1
    71   20   65       1
    72   26   66       1
    73   32   67       1
    74   34   68       1
    75   34   69       1
    76   34   70       1
    77   36   71       1
    78   36   72       1
    79   36   73       1
    80   37   74       1
    81   41   75       1
    82   41   76       1
    83   42   77       1
    84   43   78       1
    85   44   79       1
    86   45   80       1
    87   46   81       1
    88   47   82       1
    89   48   83       1
@<TRIPOS>SUBSTRUCTURE
     1 FAD599      1 GROUP             4 A     FAD     0 **** FAD A 599
