#    Name: 12688
#    Modification time : Tue Aug  8 19:40:22 2017

@<TRIPOS>MOLECULE
12688
   40     0    12     0     0
SMALL
NO_CHARGES


@<TRIPOS>ATOM
      1 N          -2.2690   31.3610   39.3850 N.am      1 SEL1        0.0000 
      2 N          -2.7150   30.5310   37.0260 N.am      1 SEL1        0.0000 
      3 N          -4.2290   28.0130   37.3460 N.am      1 SEL1        0.0000 
      4 N          -3.1340   24.8280   41.4840 N.am      1 SEL1        0.0000 
      5 N          -7.3280   25.3390   41.1830 N.am      1 SEL1        0.0000 
      6 N          -9.6290   24.5920   43.0240 N.am      1 SEL1        0.0000 
      7 O          -8.2400   23.0040   43.9050 O.2       2 ALL2        0.0000 
      8 O          -6.9140   21.3730   44.8800 O.2       2 ALL2        0.0000 
      9 CA         -3.7850   23.7700   39.5350 C.3       3 GLL5        0.0000 
     10 Zn          0.3670   31.0030   35.8680 Zn        4 ZIL7        0.0000 
     11 Zn         -2.7150   30.5310   37.0260 Zn        4 ZIL7        0.0000 
     12 N          -4.7140   29.9960   41.2920 N.am      5 SEP1        0.0000 
     13 N          -5.6520   31.3460   38.9690 N.am      5 SEP1        0.0000 
     14 N          -5.6490   30.8070   36.1960 N.am      5 SEP1        0.0000 
     15 N          -6.8260   28.2710   35.7470 N.am      5 SEP1        0.0000 
     16 N          -3.2150   25.9620   44.2960 N.am      5 SEP1        0.0000 
     17 N          -8.3752   28.1020   42.8413 N.am      5 SEP1        0.0000 
     18 N         -10.7780   23.5850   40.1200 N.am      5 SEP1        0.0000 
     19 N         -11.9090   22.4640   43.6460 N.am      5 SEP1        0.0000 
     20 N          -9.6750   26.4460   45.9720 N.am      5 SEP1        0.0000 
     21 O         -10.0710   21.7730   45.5700 O.2       6 ALP2        0.0000 
     22 O          -9.2130   19.7450   45.6050 O.2       6 ALP2        0.0000 
     23 CA         -6.3940   26.2510   37.5730 C.3       7 GLP5        0.0000 
     24 Zn         -1.2530   30.5170   35.1010 Zn        8 ZIP7        0.0000 
     25 N          -3.4915   30.6785   40.3385 N.am      9 SEC1        0.0000 
     26 N          -3.9605   31.3535   39.1770 N.am      9 SEC1        0.0000 
     27 N          -4.1820   30.6690   36.6110 N.am      9 SEC1        0.0000 
     28 N          -5.5275   28.1420   36.5465 N.am      9 SEC1        0.0000 
     29 N          -4.9390   29.4100   36.7710 N.am      9 SEC1        0.0000 
     30 N          -3.1745   25.3950   42.8900 N.am      9 SEC1        0.0000 
     31 N          -7.8516   26.7205   42.0121 N.am      9 SEC1        0.0000 
     32 N         -10.2035   24.0885   41.5720 N.am      9 SEC1        0.0000 
     33 N         -10.7690   23.5280   43.3350 N.am      9 SEC1        0.0000 
     34 N          -9.6520   25.5190   44.4980 N.am      9 SEC1        0.0000 
     35 O          -9.1555   22.3885   44.7375 O.2      10 ALC2        0.0000 
     36 O          -8.0635   20.5590   45.2425 O.2      10 ALC2        0.0000 
     37 O          -8.4925   21.5730   45.2250 O.2      10 ALC2        0.0000 
     38 CA         -5.0895   25.0105   38.5540 C.3      11 GLC5        0.0000 
     39 Zn         -0.4430   30.7600   35.4845 Zn       12 ZIC7        0.0000 
     40 Zn         -1.9840   30.5240   36.0635 Zn       12 ZIC7        0.0000 
@<TRIPOS>BOND
@<TRIPOS>SUBSTRUCTURE
     1 SEL1        1 GROUP        1 Z    SEL  0     ROOT SEL Z 0
     2 ALL2        7 GROUP        1 Z    ALL  0     **** ALL Z 1
     3 GLL5        9 GROUP        1 Z    GLL  0     **** GLL Z 4
     4 ZIL7       10 GROUP        1 Z    ZIL  0     **** ZIL Z 5
     5 SEP1       12 GROUP        1 Z    SEP  0     **** SEP Z 7
     6 ALP2       21 GROUP        1 Z    ALP  0     **** ALP Z 8
     7 GLP5       23 GROUP        1 Z    GLP  0     **** GLP Z 11
     8 ZIP7       24 GROUP        1 Z    ZIP  0     **** ZIP Z 12
     9 SEC1       25 GROUP        1 Z    SEC  0     **** SEC Z 14
    10 ALC2       35 GROUP        1 Z    ALC  0     **** ALC Z 15
    11 GLC5       38 GROUP        1 Z    GLC  0     **** GLC Z 18
    12 ZIC7       39 GROUP        1 Z    ZIC  0     **** ZIC Z 19
@<TRIPOS>SET

