@<TRIPOS>MOLECULE
2bv3_GNP_1_ligand
   45    47     1     0     0
SMALL
NO_CHARGES


@<TRIPOS>ATOM
     1 PG           0.3570    31.3050    37.3480 P.3          1 GNP1689   0.0000
     2 O1G          0.3670    31.0030    35.8680 O.co2        1 GNP1689   0.0000
     3 O2G          1.7890    31.0770    37.7680 O.co2        1 GNP1689  -1.0000
     4 O3G         -0.2160    32.6540    37.7390 O.co2        1 GNP1689  -1.0000
     5 N3B         -0.5310    30.1580    38.0140 N.3          1 GNP1689   0.0000
     6 PB          -2.0780    30.3210    38.3430 P.3          1 GNP1689   0.0000
     7 O1B         -2.2690    31.3610    39.3850 O.co2        1 GNP1689   0.0000
     8 O2B         -2.7150    30.5310    37.0260 O.co2        1 GNP1689  -1.0000
     9 O3A         -2.6200    29.0000    38.8870 O.3          1 GNP1689   0.0000
    10 PA          -2.8970    27.8300    37.9510 P.3          1 GNP1689   0.0000
    11 O1A         -1.7610    27.6680    37.0190 O.co2        1 GNP1689   0.0000
    12 O2A         -4.2290    28.0130    37.3460 O.co2        1 GNP1689  -1.0000
    13 O5'         -2.8910    26.5200    38.8220 O.3          1 GNP1689   0.0000
    14 C5'         -1.9970    26.3860    39.9370 C.3          1 GNP1689   0.0000
    15 C4'         -2.0400    24.9750    40.5260 C.3          1 GNP1689   0.0000
    16 O4'         -3.1340    24.8280    41.4840 O.3          1 GNP1689   0.0000
    17 C3'         -2.2620    23.8590    39.5140 C.3          1 GNP1689   0.0000
    18 O3'         -1.6360    22.6550    39.9600 O.3          1 GNP1689   0.0000
    19 C2'         -3.7850    23.7700    39.5350 C.3          1 GNP1689   0.0000
    20 O2'         -4.3050    22.6120    38.9110 O.3          1 GNP1689   0.0000
    21 C1'         -4.0250    23.8140    41.0450 C.3          1 GNP1689   0.0000
    22 N9          -5.3990    24.1910    41.3630 N.pl3        1 GNP1689   0.0000
    23 C8          -6.1190    25.1900    40.7310 C.2          1 GNP1689   0.0000
    24 N7          -7.3280    25.3390    41.1830 N.2          1 GNP1689   0.0000
    25 C5          -7.4270    24.3700    42.1790 C.2          1 GNP1689   0.0000
    26 C6          -8.5230    24.0450    43.0140 C.2          1 GNP1689   0.0000
    27 O6          -9.6290    24.5920    43.0240 O.2          1 GNP1689   0.0000
    28 N1          -8.2400    23.0040    43.9050 N.pl3        1 GNP1689   0.0000
    29 C2          -7.0270    22.3480    43.9660 C.2          1 GNP1689   0.0000
    30 N2          -6.9140    21.3730    44.8800 N.pl3        1 GNP1689   0.0000
    31 N3          -5.9930    22.6440    43.1810 N.2          1 GNP1689   0.0000
    32 C4          -6.2500    23.6570    42.3120 C.2          1 GNP1689   0.0000
    33 H3B         -0.0885    29.9413    38.8842 H            1 GNP1689   0.0000
    34 H5'1        -2.2604    27.0414    40.6449 H            1 GNP1689   0.0000
    35 H5'2        -1.0652    26.5819    39.6314 H            1 GNP1689   0.0000
    36 H4'         -1.1772    24.8040    41.0018 H            1 GNP1689   0.0000
    37 H3'         -1.9296    24.1231    38.6086 H            1 GNP1689   0.0000
    38 H6          -1.7890    21.9309    39.2875 H            1 GNP1689   0.0000
    39 H2'         -4.1754    24.5859    39.1085 H            1 GNP1689   0.0000
    40 H8          -5.3035    22.6244    38.9644 H            1 GNP1689   0.0000
    41 H1'         -3.7942    22.9360    41.4644 H            1 GNP1689   0.0000
    42 H10         -5.7419    25.7479    39.9917 H            1 GNP1689   0.0000
    43 H11         -8.9607    22.7177    44.5363 H            1 GNP1689   0.0000
    44 H12         -6.0566    20.8657    44.9665 H            1 GNP1689   0.0000
    45 H13         -7.6871    21.1534    45.4750 H            1 GNP1689   0.0000
@<TRIPOS>BOND
     1    1    2      ar
     2    1    3      ar
     3    1    4      ar
     4    1    5       1
     5    5    6       1
     6    6    7      ar
     7    6    8      ar
     8    6    9       1
     9    9   10       1
    10   10   11      ar
    11   10   12      ar
    12   10   13       1
    13   13   14       1
    14   14   15       1
    15   15   16       1
    16   15   17       1
    17   16   21       1
    18   17   18       1
    19   17   19       1
    20   19   20       1
    21   19   21       1
    22   21   22       1
    23   22   23       1
    24   22   32       1
    25   23   24       2
    26   24   25       1
    27   25   26       1
    28   25   32       2
    29   26   27       2
    30   26   28       1
    31   28   29       1
    32   29   30       1
    33   29   31       2
    34   31   32       1
    35   30   45       1
    36   30   44       1
    37    5   33       1
    38   28   43       1
    39   23   42       1
    40   14   34       1
    41   14   35       1
    42   15   36       1
    43   17   37       1
    44   18   38       1
    45   19   39       1
    46   20   40       1
    47   21   41       1
@<TRIPOS>SUBSTRUCTURE
     1 GNP1689     1 GROUP             4 A     GNP     0 **** GNP A1689
