2bv3_GNP_1_ligand
  -OEChem-08111718373D

 45 47  0     1  0  0  0  0  0999 V2000
   -5.7419   25.7479   39.9917 H   0  0  0  0  0  0  0  0  0  0  0  0
   -1.9296   24.1231   38.6086 H   0  0  0  0  0  0  0  0  0  0  0  0
   -4.1754   24.5859   39.1085 H   0  0  0  0  0  0  0  0  0  0  0  0
   -1.1772   24.8040   41.0018 H   0  0  0  0  0  0  0  0  0  0  0  0
   -3.7942   22.9360   41.4644 H   0  0  0  0  0  0  0  0  0  0  0  0
   -2.2604   27.0414   40.6449 H   0  0  0  0  0  0  0  0  0  0  0  0
   -1.0652   26.5819   39.6314 H   0  0  0  0  0  0  0  0  0  0  0  0
   -8.9607   22.7177   44.5363 H   0  0  0  0  0  0  0  0  0  0  0  0
   -6.0566   20.8657   44.9665 H   0  0  0  0  0  0  0  0  0  0  0  0
   -7.6871   21.1534   45.4750 H   0  0  0  0  0  0  0  0  0  0  0  0
   -0.0885   29.9413   38.8842 H   0  0  0  0  0  0  0  0  0  0  0  0
   -1.7890   21.9309   39.2875 H   0  0  0  0  0  0  0  0  0  0  0  0
   -5.3035   22.6244   38.9644 H   0  0  0  0  0  0  0  0  0  0  0  0
   -6.1190   25.1900   40.7310 C   0  0  0  0  0  0  0  0  0  0  0  0
   -7.4270   24.3700   42.1790 C   0  0  0  0  0  0  0  0  0  0  0  0
   -6.2500   23.6570   42.3120 C   0  0  0  0  0  0  0  0  0  0  0  0
   -8.5230   24.0450   43.0140 C   0  0  0  0  0  0  0  0  0  0  0  0
   -7.0270   22.3480   43.9660 C   0  0  0  0  0  0  0  0  0  0  0  0
   -2.2620   23.8590   39.5140 C   0  0  1  0  0  0  0  0  0  0  0  0
   -3.7850   23.7700   39.5350 C   0  0  2  0  0  0  0  0  0  0  0  0
   -2.0400   24.9750   40.5260 C   0  0  1  0  0  0  0  0  0  0  0  0
   -4.0250   23.8140   41.0450 C   0  0  2  0  0  0  0  0  0  0  0  0
   -1.9970   26.3860   39.9370 C   0  0  1  0  0  0  0  0  0  0  0  0
   -7.3280   25.3390   41.1830 N   0  0  0  0  0  0  0  0  0  0  0  0
   -5.9930   22.6440   43.1810 N   0  0  0  0  0  0  0  0  0  0  0  0
   -8.2400   23.0040   43.9050 N   0  0  0  0  0  0  0  0  0  0  0  0
   -5.3990   24.1910   41.3630 N   0  0  0  0  0  0  0  0  0  0  0  0
   -6.9140   21.3730   44.8800 N   0  0  0  0  0  0  0  0  0  0  0  0
   -0.5310   30.1580   38.0140 N   0  0  2  0  0  0  0  0  0  0  0  0
    1.7890   31.0770   37.7680 O   0  5  0  0  0  0  0  0  0  0  0  0
   -0.2160   32.6540   37.7390 O   0  5  0  0  0  0  0  0  0  0  0  0
   -2.7150   30.5310   37.0260 O   0  5  0  0  0  0  0  0  0  0  0  0
   -4.2290   28.0130   37.3460 O   0  5  0  0  0  0  0  0  0  0  0  0
   -9.6290   24.5920   43.0240 O   0  0  0  0  0  0  0  0  0  0  0  0
    0.3670   31.0030   35.8680 O   0  0  0  0  0  0  0  0  0  0  0  0
   -2.2690   31.3610   39.3850 O   0  0  0  0  0  0  0  0  0  0  0  0
   -1.7610   27.6680   37.0190 O   0  0  0  0  0  0  0  0  0  0  0  0
   -3.1340   24.8280   41.4840 O   0  0  0  0  0  0  0  0  0  0  0  0
   -1.6360   22.6550   39.9600 O   0  0  0  0  0  0  0  0  0  0  0  0
   -4.3050   22.6120   38.9110 O   0  0  0  0  0  0  0  0  0  0  0  0
   -2.8910   26.5200   38.8220 O   0  0  0  0  0  0  0  0  0  0  0  0
   -2.6200   29.0000   38.8870 O   0  0  0  0  0  0  0  0  0  0  0  0
    0.3570   31.3050   37.3480 P   0  0  0  0  0  0  0  0  0  0  0  0
   -2.0780   30.3210   38.3430 P   0  0  2  0  0  0  0  0  0  0  0  0
   -2.8970   27.8300   37.9510 P   0  0  2  0  0  0  0  0  0  0  0  0
  1 14  1  0  0  0  0
  2 19  1  0  0  0  0
  3 20  1  0  0  0  0
  4 21  1  0  0  0  0
  5 22  1  0  0  0  0
  6 23  1  0  0  0  0
  7 23  1  0  0  0  0
  8 26  1  0  0  0  0
  9 28  1  0  0  0  0
 10 28  1  0  0  0  0
 11 29  1  0  0  0  0
 12 39  1  0  0  0  0
 13 40  1  0  0  0  0
 14 24  2  0  0  0  0
 14 27  1  0  0  0  0
 15 16  2  0  0  0  0
 15 17  1  0  0  0  0
 15 24  1  0  0  0  0
 16 25  1  0  0  0  0
 16 27  1  0  0  0  0
 17 26  1  0  0  0  0
 17 34  2  0  0  0  0
 18 25  2  0  0  0  0
 18 26  1  0  0  0  0
 18 28  1  0  0  0  0
 19 20  1  0  0  0  0
 19 21  1  0  0  0  0
 19 39  1  0  0  0  0
 20 22  1  0  0  0  0
 20 40  1  0  0  0  0
 21 23  1  0  0  0  0
 21 38  1  0  0  0  0
 22 27  1  0  0  0  0
 22 38  1  0  0  0  0
 23 41  1  0  0  0  0
 29 43  1  0  0  0  0
 29 44  1  0  0  0  0
 30 43  1  0  0  0  0
 31 43  1  0  0  0  0
 32 44  1  0  0  0  0
 33 45  1  0  0  0  0
 35 43  2  0  0  0  0
 36 44  2  0  0  0  0
 37 45  2  0  0  0  0
 41 45  1  0  0  0  0
 42 44  1  0  0  0  0
 42 45  1  0  0  0  0
M  CHG  4  30  -1  31  -1  32  -1  33  -1
M  END
> <scpdb_id>
2bv3_1

$$$$
