#    Name: 20770
#    Modification time : Tue Aug  8 21:11:40 2017

@<TRIPOS>MOLECULE
20770
   37     0    12     0     0
SMALL
NO_CHARGES


@<TRIPOS>ATOM
      1 N          17.2970    4.7890   64.7790 N.am      1 SEL1        0.0000 
      2 N          15.8940    5.0180   66.4980 N.am      1 SEL1        0.0000 
      3 N          22.4470    3.8830   65.2560 N.am      1 SEL1        0.0000 
      4 O          22.4470    3.8830   65.2560 O.2       2 ALL2        0.0000 
      5 NZ         15.8940    5.0180   66.4980 N.4       3 LYL3        0.0000 
      6 CA         18.8620    3.3980   69.9790 C.3       4 GLL5        0.0000 
      7 CA         21.4670    4.7700   65.7750 C.3       4 GLL5        0.0000 
      8 N          18.0410    7.3860   63.6410 N.am      5 SEP1        0.0000 
      9 N          13.3900    4.8550   65.4330 N.am      5 SEP1        0.0000 
     10 N          14.7770    4.5580   68.9030 N.am      5 SEP1        0.0000 
     11 N          13.1370    6.0190   68.1930 N.am      5 SEP1        0.0000 
     12 N          24.8730    5.2920   65.7660 N.am      5 SEP1        0.0000 
     13 N          21.6310    5.2850   62.1730 N.am      5 SEP1        0.0000 
     14 O          22.1890    1.7530   62.9780 O.2       6 ALP2        0.0000 
     15 NZ         13.7660    5.3590   69.1750 N.4       7 LYP3        0.0000 
     16 CA         23.1610    4.2390   70.1440 C.3       8 GLP5        0.0000 
     17 CA         20.6580    5.8080   72.4680 C.3       8 GLP5        0.0000 
     18 CA         17.2610    7.0300   71.3880 C.3       8 GLP5        0.0000 
     19 CA         23.9830    7.0560   63.3140 C.3       8 GLP5        0.0000 
     20 CA         21.0350    0.4520   64.6910 C.3       8 GLP5        0.0000 
     21 CA         20.4520    4.5470   61.8230 C.3       8 GLP5        0.0000 
     22 CA         18.7450    7.7130   67.0670 C.3       8 GLP5        0.0000 
     23 N          17.6690    6.0875   64.2100 N.am      9 SEC1        0.0000 
     24 N          14.6420    4.9365   65.9655 N.am      9 SEC1        0.0000 
     25 N          15.3355    4.7880   67.7005 N.am      9 SEC1        0.0000 
     26 N          14.5155    5.5185   67.3455 N.am      9 SEC1        0.0000 
     27 N          23.6600    4.5875   65.5110 N.am      9 SEC1        0.0000 
     28 N          22.0390    4.5840   63.7145 N.am      9 SEC1        0.0000 
     29 O          22.3180    2.8180   64.1170 O.2      10 ALC2        0.0000 
     30 NZ         14.8300    5.1885   67.8365 N.4      11 LYC3        0.0000 
     31 CA         21.0115    3.8185   70.0615 C.3      12 GLC5        0.0000 
     32 CA         19.7600    4.6030   71.2235 C.3      12 GLC5        0.0000 
     33 CA         18.0615    5.2140   70.6835 C.3      12 GLC5        0.0000 
     34 CA         22.7250    5.9130   64.5445 C.3      12 GLC5        0.0000 
     35 CA         21.2510    2.6110   65.2330 C.3      12 GLC5        0.0000 
     36 CA         20.9595    4.6585   63.7990 C.3      12 GLC5        0.0000 
     37 CA         20.1060    6.2415   66.4210 C.3      12 GLC5        0.0000 
@<TRIPOS>BOND
@<TRIPOS>SUBSTRUCTURE
     1 SEL1        1 GROUP        1 Z    SEL  0     ROOT SEL Z 0
     2 ALL2        4 GROUP        1 Z    ALL  0     **** ALL Z 1
     3 LYL3        5 GROUP        1 Z    LYL  0     **** LYL Z 2
     4 GLL5        6 GROUP        1 Z    GLL  0     **** GLL Z 4
     5 SEP1        8 GROUP        1 Z    SEP  0     **** SEP Z 7
     6 ALP2       14 GROUP        1 Z    ALP  0     **** ALP Z 8
     7 LYP3       15 GROUP        1 Z    LYP  0     **** LYP Z 9
     8 GLP5       16 GROUP        1 Z    GLP  0     **** GLP Z 11
     9 SEC1       23 GROUP        1 Z    SEC  0     **** SEC Z 14
    10 ALC2       29 GROUP        1 Z    ALC  0     **** ALC Z 15
    11 LYC3       30 GROUP        1 Z    LYC  0     **** LYC Z 16
    12 GLC5       31 GROUP        1 Z    GLC  0     **** GLC Z 18
@<TRIPOS>SET

