@<TRIPOS>MOLECULE
2xfs_J01_2_ligand
   22    23     1     0     0
SMALL
NO_CHARGES


@<TRIPOS>ATOM
     1 O2          17.2010     1.7510    69.1730 O.2          1 J01600   0.0000
     2 C5          17.7610     2.8360    69.1250 C.2          1 J01600   0.0000
     3 C4          18.8620     3.3980    69.9790 C.3          1 J01600   0.0000
     4 C3          18.7760     4.5370    68.9510 C.3          1 J01600   0.0000
     5 N1          17.6110     3.9390    68.2630 N.am         1 J01600   0.0000
     6 O1          19.8710     4.4440    68.0340 O.3          1 J01600   0.0000
     7 C1          19.3280     4.1380    66.7400 C.2          1 J01600   0.0000
     8 C2          17.8890     3.6760    66.8310 C.3          1 J01600   0.0000
     9 C8          16.9620     4.5520    65.9850 C.2          1 J01600   0.0000
    10 O5          17.2970     4.7890    64.7790 O.co2        1 J01600   0.0000
    11 O4          15.8940     5.0180    66.4980 O.co2        1 J01600  -1.0000
    12 C6          20.0610     4.2330    65.6180 C.2          1 J01600   0.0000
    13 C7          21.4670     4.7700    65.7750 C.3          1 J01600   0.0000
    14 O3          22.4470     3.8830    65.2560 O.3          1 J01600   0.0000
    15 H1          19.7171     2.8796    69.9859 H            1 J01600   0.0000
    16 H2          18.6090     3.6361    70.9167 H            1 J01600   0.0000
    17 H3          18.6209     5.4465    69.3366 H            1 J01600   0.0000
    18 H4          17.7940     2.7065    66.6051 H            1 J01600   0.0000
    19 H5          19.6968     3.9632    64.7266 H            1 J01600   0.0000
    20 H6          21.6484     4.9153    66.7476 H            1 J01600   0.0000
    21 H7          21.5338     5.6417    65.2896 H            1 J01600   0.0000
    22 H8          22.0558     3.3604    64.4984 H            1 J01600   0.0000
@<TRIPOS>BOND
     1    1    2       2
     2    2    3       1
     3    2    5      am
     4    3    4       1
     5    4    5       1
     6    4    6       1
     7    5    8       1
     8    6    7       1
     9    7    8       1
    10    7   12       2
    11    8    9       1
    12    9   10      ar
    13    9   11      ar
    14   12   13       1
    15   13   14       1
    16    3   15       1
    17    3   16       1
    18    4   17       1
    19    8   18       1
    20   14   22       1
    21   12   19       1
    22   13   20       1
    23   13   21       1
@<TRIPOS>SUBSTRUCTURE
     1 J01600      1 GROUP             4 A     J01     0 **** J01 A 600
