2xfs_J01_2_ligand
  -OEChem-08111718373D

 22 23  0     1  0  0  0  0  0999 V2000
   19.6968    3.9632   64.7266 H   0  0  0  0  0  0  0  0  0  0  0  0
   19.7171    2.8796   69.9859 H   0  0  0  0  0  0  0  0  0  0  0  0
   18.6090    3.6361   70.9167 H   0  0  0  0  0  0  0  0  0  0  0  0
   17.7940    2.7065   66.6051 H   0  0  0  0  0  0  0  0  0  0  0  0
   18.6209    5.4465   69.3366 H   0  0  0  0  0  0  0  0  0  0  0  0
   21.6484    4.9153   66.7476 H   0  0  0  0  0  0  0  0  0  0  0  0
   21.5338    5.6417   65.2896 H   0  0  0  0  0  0  0  0  0  0  0  0
   22.0558    3.3604   64.4984 H   0  0  0  0  0  0  0  0  0  0  0  0
   19.3280    4.1380   66.7400 C   0  0  0  0  0  0  0  0  0  0  0  0
   17.7610    2.8360   69.1250 C   0  0  0  0  0  0  0  0  0  0  0  0
   20.0610    4.2330   65.6180 C   0  0  0  0  0  0  0  0  0  0  0  0
   16.9620    4.5520   65.9850 C   0  0  0  0  0  0  0  0  0  0  0  0
   18.8620    3.3980   69.9790 C   0  0  2  0  0  0  0  0  0  0  0  0
   17.8890    3.6760   66.8310 C   0  0  2  0  0  0  0  0  0  0  0  0
   18.7760    4.5370   68.9510 C   0  0  2  0  0  0  0  0  0  0  0  0
   21.4670    4.7700   65.7750 C   0  0  2  0  0  0  0  0  0  0  0  0
   17.6110    3.9390   68.2630 N   0  0  2  0  0  0  0  0  0  0  0  0
   15.8940    5.0180   66.4980 O   0  5  0  0  0  0  0  0  0  0  0  0
   17.2010    1.7510   69.1730 O   0  0  0  0  0  0  0  0  0  0  0  0
   17.2970    4.7890   64.7790 O   0  0  0  0  0  0  0  0  0  0  0  0
   19.8710    4.4440   68.0340 O   0  0  0  0  0  0  0  0  0  0  0  0
   22.4470    3.8830   65.2560 O   0  0  0  0  0  0  0  0  0  0  0  0
  1 11  1  0  0  0  0
  2 13  1  0  0  0  0
  3 13  1  0  0  0  0
  4 14  1  0  0  0  0
  5 15  1  0  0  0  0
  6 16  1  0  0  0  0
  7 16  1  0  0  0  0
  8 22  1  0  0  0  0
  9 11  2  0  0  0  0
  9 14  1  0  0  0  0
  9 21  1  0  0  0  0
 10 13  1  0  0  0  0
 10 17  1  0  0  0  0
 10 19  2  0  0  0  0
 11 16  1  0  0  0  0
 12 14  1  0  0  0  0
 12 18  1  0  0  0  0
 12 20  2  0  0  0  0
 13 15  1  0  0  0  0
 14 17  1  0  0  0  0
 15 17  1  0  0  0  0
 15 21  1  0  0  0  0
 16 22  1  0  0  0  0
M  CHG  1  18  -1
M  END
> <scpdb_id>
2xfs_2

$$$$
