#    Name: 21417
#    Modification time : Wed Aug  9 01:21:57 2017

@<TRIPOS>MOLECULE
21417
   45     0     9     0     0
SMALL
NO_CHARGES


@<TRIPOS>ATOM
      1 N          18.1040   61.9440  -18.9170 N.am      1 SEL1        0.0000 
      2 N          17.4540   55.5460  -19.9760 N.am      1 SEL1        0.0000 
      3 N          19.1530   57.7880  -20.6290 N.am      1 SEL1        0.0000 
      4 NZ         18.1040   61.9440  -18.9170 N.4       2 LYL3        0.0000 
      5 CA         14.2150   58.8110  -17.7750 C.3       3 GLL5        0.0000 
      6 CA         15.1100   55.9390  -18.5970 C.3       3 GLL5        0.0000 
      7 CA         11.7350   54.7680  -19.8200 C.3       3 GLL5        0.0000 
      8 CA         13.2310   54.8440  -21.7040 C.3       3 GLL5        0.0000 
      9 CA         14.2570   55.2930  -20.8890 C.3       3 GLL5        0.0000 
     10 CA         12.7560   55.2110  -19.0030 C.3       3 GLL5        0.0000 
     11 CA         11.9790   54.5900  -21.1680 C.3       3 GLL5        0.0000 
     12 CA         14.0170   55.4890  -19.5410 C.3       3 GLL5        0.0000 
     13 N          15.3600   62.3710  -19.5920 N.am      4 SEP1        0.0000 
     14 N          18.2740   52.8660  -19.1310 N.am      4 SEP1        0.0000 
     15 N          20.1070   55.0230  -20.0250 N.am      4 SEP1        0.0000 
     16 NZ         14.6310   63.3940  -20.0610 N.4       5 LYP3        0.0000 
     17 CA         11.2760   60.0610  -15.2470 C.3       6 GLP5        0.0000 
     18 CA         10.5760   58.1740  -19.9870 C.3       6 GLP5        0.0000 
     19 CA         13.5490   52.7690  -15.9780 C.3       6 GLP5        0.0000 
     20 CA         15.7410   55.9700  -14.1990 C.3       6 GLP5        0.0000 
     21 CA         11.2690   50.5140  -18.8740 C.3       6 GLP5        0.0000 
     22 CA         14.8300   56.6740  -24.5720 C.3       6 GLP5        0.0000 
     23 CA         16.2000   52.9910  -21.0000 C.3       6 GLP5        0.0000 
     24 CA         16.0030   55.7010  -24.2000 C.3       6 GLP5        0.0000 
     25 CA         11.2190   53.7710  -15.6640 C.3       6 GLP5        0.0000 
     26 CA          9.7100   55.8760  -23.8620 C.3       6 GLP5        0.0000 
     27 CA         11.9970   51.5930  -23.1580 C.3       6 GLP5        0.0000 
     28 CA         15.2520   52.1860  -18.7400 C.3       6 GLP5        0.0000 
     29 N          16.7320   62.1575  -19.2545 N.am      7 SEC1        0.0000 
     30 N          17.8640   54.2060  -19.5535 N.am      7 SEC1        0.0000 
     31 N          19.6300   56.4055  -20.3270 N.am      7 SEC1        0.0000 
     32 NZ         16.3675   62.6690  -19.4890 N.4       8 LYC3        0.0000 
     33 CA         12.7455   59.4360  -16.5110 C.3       9 GLC5        0.0000 
     34 CA         12.3955   58.4925  -18.8810 C.3       9 GLC5        0.0000 
     35 CA         14.3295   54.3540  -17.2875 C.3       9 GLC5        0.0000 
     36 CA         15.4255   55.9545  -16.3980 C.3       9 GLC5        0.0000 
     37 CA         11.5020   52.6410  -19.3470 C.3       9 GLC5        0.0000 
     38 CA         14.0305   55.7590  -23.1380 C.3       9 GLC5        0.0000 
     39 CA         14.7155   53.9175  -21.3520 C.3       9 GLC5        0.0000 
     40 CA         15.1300   55.4970  -22.5445 C.3       9 GLC5        0.0000 
     41 CA         11.7323   54.3803  -17.5378 C.3       9 GLC5        0.0000 
     42 CA         11.1575   55.2965  -22.6490 C.3       9 GLC5        0.0000 
     43 CA         12.3010   53.1550  -22.2970 C.3       9 GLC5        0.0000 
     44 CA         14.1770   53.6848  -19.2135 C.3       9 GLC5        0.0000 
     45 CA         11.3924   56.5215  -20.0035 C.3       9 GLC5        0.0000 
@<TRIPOS>BOND
@<TRIPOS>SUBSTRUCTURE
     1 SEL1        1 GROUP        1 Z    SEL  0     ROOT SEL Z 0
     2 LYL3        4 GROUP        1 Z    LYL  0     **** LYL Z 2
     3 GLL5        5 GROUP        1 Z    GLL  0     **** GLL Z 4
     4 SEP1       13 GROUP        1 Z    SEP  0     **** SEP Z 7
     5 LYP3       16 GROUP        1 Z    LYP  0     **** LYP Z 9
     6 GLP5       17 GROUP        1 Z    GLP  0     **** GLP Z 11
     7 SEC1       29 GROUP        1 Z    SEC  0     **** SEC Z 14
     8 LYC3       32 GROUP        1 Z    LYC  0     **** LYC Z 16
     9 GLC5       33 GROUP        1 Z    GLC  0     **** GLC Z 18
@<TRIPOS>SET

