@<TRIPOS>MOLECULE
2ycm_30A_1_ligand
   30    32     1     0     0
SMALL
NO_CHARGES


@<TRIPOS>ATOM
     1 CL          14.2150    58.8110   -17.7750 Cl           1 30A1306   0.0000
     2 C1          18.6850    59.9200   -20.0970 C.2          1 30A1306   0.0000
     3 C2          18.6830    61.4110   -19.9000 C.2          1 30A1306   0.0000
     4 O3          19.2990    62.1100   -20.7350 O.co2        1 30A1306   0.0000
     5 C4          17.6430    59.1340   -19.6240 C.2          1 30A1306   0.0000
     6 O4          18.1040    61.9440   -18.9170 O.co2        1 30A1306  -1.0000
     7 N5          17.9500    57.8840   -19.9610 N.pl3        1 30A1306   0.0000
     8 C6          17.1650    56.8370   -19.6480 C.2          1 30A1306   0.0000
     9 O7          17.4540    55.5460   -19.9760 O.2          1 30A1306   0.0000
    10 C8          15.9920    57.1010   -18.9870 C.2          1 30A1306   0.0000
    11 C9          15.1100    55.9390   -18.5970 C.3          1 30A1306   0.0000
    12 C10         14.0170    55.4890   -19.5410 C.ar         1 30A1306   0.0000
    13 C11         12.7560    55.2110   -19.0030 C.ar         1 30A1306   0.0000
    14 C12         11.7350    54.7680   -19.8200 C.ar         1 30A1306   0.0000
    15 C13         11.9790    54.5900   -21.1680 C.ar         1 30A1306   0.0000
    16 C14         13.2310    54.8440   -21.7040 C.ar         1 30A1306   0.0000
    17 C15         14.2570    55.2930   -20.8890 C.ar         1 30A1306   0.0000
    18 C16         15.7080    58.4260   -18.6420 C.2          1 30A1306   0.0000
    19 N18         16.5210    59.4610   -18.9600 N.pl3        1 30A1306   0.0000
    20 N19         19.1530    57.7880   -20.6290 N.2          1 30A1306   0.0000
    21 C20         19.5970    59.0690   -20.7070 C.2          1 30A1306   0.0000
    22 H1          14.6675    56.1853   -17.7347 H            1 30A1306   0.0000
    23 H2          15.7108    55.1531   -18.4507 H            1 30A1306   0.0000
    24 H3          12.5936    55.3335   -18.0239 H            1 30A1306   0.0000
    25 H4          10.8295    54.5782   -19.4404 H            1 30A1306   0.0000
    26 H5          11.2419    54.2735   -21.7650 H            1 30A1306   0.0000
    27 H6          13.3942    54.7030   -22.6805 H            1 30A1306   0.0000
    28 H7          15.1630    55.4738   -21.2717 H            1 30A1306   0.0000
    29 H8          16.3013    60.4058   -18.7170 H            1 30A1306   0.0000
    30 H9          20.4520    59.3562   -21.1388 H            1 30A1306   0.0000
@<TRIPOS>BOND
     1    1   18       1
     2    2    3       1
     3    2    5       2
     4    2   21       1
     5    3    4      ar
     6    3    6      ar
     7    5    7       1
     8    5   19       1
     9    7    8       1
    10    7   20       1
    11    8    9       2
    12    8   10       1
    13   10   11       1
    14   10   18       2
    15   11   12       1
    16   12   13      ar
    17   12   17      ar
    18   13   14      ar
    19   14   15      ar
    20   15   16      ar
    21   16   17      ar
    22   18   19       1
    23   20   21       2
    24   21   30       1
    25   11   22       1
    26   11   23       1
    27   13   24       1
    28   14   25       1
    29   15   26       1
    30   16   27       1
    31   17   28       1
    32   19   29       1
@<TRIPOS>SUBSTRUCTURE
     1 30A1306     1 GROUP             4 A     30A     0 **** 30A A1306
