2ycm_30A_1_ligand
  -OEChem-08111718373D

 30 32  0     1  0  0  0  0  0999 V2000
   11.2419   54.2735  -21.7650 H   0  0  0  0  0  0  0  0  0  0  0  0
   10.8295   54.5782  -19.4404 H   0  0  0  0  0  0  0  0  0  0  0  0
   13.3942   54.7030  -22.6805 H   0  0  0  0  0  0  0  0  0  0  0  0
   12.5936   55.3335  -18.0239 H   0  0  0  0  0  0  0  0  0  0  0  0
   15.1630   55.4738  -21.2717 H   0  0  0  0  0  0  0  0  0  0  0  0
   20.4520   59.3562  -21.1388 H   0  0  0  0  0  0  0  0  0  0  0  0
   14.6675   56.1853  -17.7347 H   0  0  0  0  0  0  0  0  0  0  0  0
   15.7108   55.1531  -18.4507 H   0  0  0  0  0  0  0  0  0  0  0  0
   16.3013   60.4058  -18.7170 H   0  0  0  0  0  0  0  0  0  0  0  0
   11.9790   54.5900  -21.1680 C   0  0  0  0  0  0  0  0  0  0  0  0
   11.7350   54.7680  -19.8200 C   0  0  0  0  0  0  0  0  0  0  0  0
   13.2310   54.8440  -21.7040 C   0  0  0  0  0  0  0  0  0  0  0  0
   12.7560   55.2110  -19.0030 C   0  0  0  0  0  0  0  0  0  0  0  0
   14.2570   55.2930  -20.8890 C   0  0  0  0  0  0  0  0  0  0  0  0
   19.5970   59.0690  -20.7070 C   0  0  0  0  0  0  0  0  0  0  0  0
   18.6850   59.9200  -20.0970 C   0  0  0  0  0  0  0  0  0  0  0  0
   14.0170   55.4890  -19.5410 C   0  0  0  0  0  0  0  0  0  0  0  0
   15.9920   57.1010  -18.9870 C   0  0  0  0  0  0  0  0  0  0  0  0
   17.6430   59.1340  -19.6240 C   0  0  0  0  0  0  0  0  0  0  0  0
   17.1650   56.8370  -19.6480 C   0  0  0  0  0  0  0  0  0  0  0  0
   15.7080   58.4260  -18.6420 C   0  0  0  0  0  0  0  0  0  0  0  0
   18.6830   61.4110  -19.9000 C   0  0  0  0  0  0  0  0  0  0  0  0
   15.1100   55.9390  -18.5970 C   0  0  1  0  0  0  0  0  0  0  0  0
   19.1530   57.7880  -20.6290 N   0  0  0  0  0  0  0  0  0  0  0  0
   16.5210   59.4610  -18.9600 N   0  0  0  0  0  0  0  0  0  0  0  0
   17.9500   57.8840  -19.9610 N   0  0  0  0  0  0  0  0  0  0  0  0
   18.1040   61.9440  -18.9170 O   0  5  0  0  0  0  0  0  0  0  0  0
   17.4540   55.5460  -19.9760 O   0  0  0  0  0  0  0  0  0  0  0  0
   19.2990   62.1100  -20.7350 O   0  0  0  0  0  0  0  0  0  0  0  0
   14.2150   58.8110  -17.7750 Cl  0  0  0  0  0  0  0  0  0  0  0  0
  1 10  1  0  0  0  0
  2 11  1  0  0  0  0
  3 12  1  0  0  0  0
  4 13  1  0  0  0  0
  5 14  1  0  0  0  0
  6 15  1  0  0  0  0
  7 23  1  0  0  0  0
  8 23  1  0  0  0  0
  9 25  1  0  0  0  0
 10 11  2  0  0  0  0
 10 12  1  0  0  0  0
 11 13  1  0  0  0  0
 12 14  2  0  0  0  0
 13 17  2  0  0  0  0
 14 17  1  0  0  0  0
 15 16  1  0  0  0  0
 15 24  2  0  0  0  0
 16 19  2  0  0  0  0
 16 22  1  0  0  0  0
 17 23  1  0  0  0  0
 18 20  1  0  0  0  0
 18 21  2  0  0  0  0
 18 23  1  0  0  0  0
 19 25  1  0  0  0  0
 19 26  1  0  0  0  0
 20 26  1  0  0  0  0
 20 28  2  0  0  0  0
 21 25  1  0  0  0  0
 21 30  1  0  0  0  0
 22 27  1  0  0  0  0
 22 29  2  0  0  0  0
 24 26  1  0  0  0  0
M  CHG  1  27  -1
M  END
> <scpdb_id>
2ycm_1

$$$$
