#    Name: 9216
#    Modification time : Tue Aug  8 20:30:57 2017

@<TRIPOS>MOLECULE
9216
   53     0    12     0     0
SMALL
NO_CHARGES


@<TRIPOS>ATOM
      1 N          32.5300  -13.4540   31.6760 N.am      1 SEL1        0.0000 
      2 N          31.2950  -14.2760   29.6830 N.am      1 SEL1        0.0000 
      3 N          30.1550  -12.9350   31.3870 N.am      1 SEL1        0.0000 
      4 N          30.8500  -15.2290   31.8560 N.am      1 SEL1        0.0000 
      5 N          27.0060  -16.2800   32.9330 N.am      1 SEL1        0.0000 
      6 N          26.4700  -14.9020   37.4600 N.am      1 SEL1        0.0000 
      7 N          29.6300  -14.7940   40.7770 N.am      1 SEL1        0.0000 
      8 O          27.0060  -16.2800   32.9330 O.2       2 ALL2        0.0000 
      9 O          28.0510  -14.8930   39.1300 O.2       2 ALL2        0.0000 
     10 NZ         32.5300  -13.4540   31.6760 N.4       3 LYL3        0.0000 
     11 NZ         31.2950  -14.2760   29.6830 N.4       3 LYL3        0.0000 
     12 NZ         30.1550  -12.9350   31.3870 N.4       3 LYL3        0.0000 
     13 CA         31.7710  -15.4700   39.0080 C.3       4 GLL5        0.0000 
     14 CA         27.7970  -14.6490   34.5100 C.3       4 GLL5        0.0000 
     15 CA         28.4440  -15.5990   35.5210 C.3       4 GLL5        0.0000 
     16 N          31.2070  -10.4100   31.9710 N.am      5 SEP1        0.0000 
     17 N          32.5590  -11.4550   33.5270 N.am      5 SEP1        0.0000 
     18 N          33.1650  -16.2860   29.0540 N.am      5 SEP1        0.0000 
     19 N          27.7370  -12.1160   32.4390 N.am      5 SEP1        0.0000 
     20 N          32.3070  -17.6040   30.7330 N.am      5 SEP1        0.0000 
     21 N          24.8630  -14.9600   31.8740 N.am      5 SEP1        0.0000 
     22 N          24.2750  -14.8770   35.5410 N.am      5 SEP1        0.0000 
     23 N          27.7080  -13.8370   42.6410 N.am      5 SEP1        0.0000 
     24 O          27.1210  -17.9350   30.7830 O.2       6 ALP2        0.0000 
     25 O          26.1970  -13.8440   41.0510 O.2       6 ALP2        0.0000 
     26 NZ         31.9880  -10.3540   33.0490 N.4       7 LYP3        0.0000 
     27 NZ         33.1050  -17.4650   29.6740 N.4       7 LYP3        0.0000 
     28 CA         34.9210  -17.0130   39.8700 C.3       8 GLP5        0.0000 
     29 CA         34.1960  -12.1060   40.6660 C.3       8 GLP5        0.0000 
     30 CA         34.2560  -17.0270   35.7530 C.3       8 GLP5        0.0000 
     31 CA         30.5610  -11.8570   37.0960 C.3       8 GLP5        0.0000 
     32 CA         28.1680  -10.9270   33.0470 C.3       8 GLP5        0.0000 
     33 CA         24.6660  -17.2430   35.5110 C.3       8 GLP5        0.0000 
     34 N          31.8685  -11.9320   31.8235 N.am      9 SEC1        0.0000 
     35 N          32.5445  -12.4545   32.6015 N.am      9 SEC1        0.0000 
     36 N          32.2300  -15.2810   29.3685 N.am      9 SEC1        0.0000 
     37 N          28.9460  -12.5255   31.9130 N.am      9 SEC1        0.0000 
     38 N          30.6810  -11.6725   31.6790 N.am      9 SEC1        0.0000 
     39 N          31.5785  -16.4165   31.2945 N.am      9 SEC1        0.0000 
     40 N          25.9345  -15.6200   32.4035 N.am      9 SEC1        0.0000 
     41 N          25.3725  -14.8895   36.5005 N.am      9 SEC1        0.0000 
     42 N          28.6690  -14.3155   41.7090 N.am      9 SEC1        0.0000 
     43 O          27.0635  -17.1075   31.8580 O.2      10 ALC2        0.0000 
     44 O          27.1240  -14.3685   40.0905 O.2      10 ALC2        0.0000 
     45 NZ         32.2590  -11.9040   32.3625 N.4      11 LYC3        0.0000 
     46 NZ         32.2000  -15.8705   29.6785 N.4      11 LYC3        0.0000 
     47 NZ         31.0715  -11.6445   32.2180 N.4      11 LYC3        0.0000 
     48 CA         33.3460  -16.2415   39.4390 C.3      12 GLC5        0.0000 
     49 CA         32.9835  -13.7880   39.8370 C.3      12 GLC5        0.0000 
     50 CA         33.0135  -16.2485   37.3805 C.3      12 GLC5        0.0000 
     51 CA         31.1660  -13.6635   38.0520 C.3      12 GLC5        0.0000 
     52 CA         28.0455  -12.9625   33.4437 C.3      12 GLC5        0.0000 
     53 CA         26.3933  -16.1835   35.2632 C.3      12 GLC5        0.0000 
@<TRIPOS>BOND
@<TRIPOS>SUBSTRUCTURE
     1 SEL1        1 GROUP        1 Z    SEL  0     ROOT SEL Z 0
     2 ALL2        8 GROUP        1 Z    ALL  0     **** ALL Z 1
     3 LYL3       10 GROUP        1 Z    LYL  0     **** LYL Z 2
     4 GLL5       13 GROUP        1 Z    GLL  0     **** GLL Z 4
     5 SEP1       16 GROUP        1 Z    SEP  0     **** SEP Z 7
     6 ALP2       24 GROUP        1 Z    ALP  0     **** ALP Z 8
     7 LYP3       26 GROUP        1 Z    LYP  0     **** LYP Z 9
     8 GLP5       28 GROUP        1 Z    GLP  0     **** GLP Z 11
     9 SEC1       34 GROUP        1 Z    SEC  0     **** SEC Z 14
    10 ALC2       43 GROUP        1 Z    ALC  0     **** ALC Z 15
    11 LYC3       45 GROUP        1 Z    LYC  0     **** LYC Z 16
    12 GLC5       48 GROUP        1 Z    GLC  0     **** GLC Z 18
@<TRIPOS>SET

