1tys_TMP_1_ligand
  -OEChem-08111718373D

 34 35  0     1  0  0  0  0  0999 V2000
   30.6291  -15.7679   36.6113 H   0  0  0  0  0  0  0  0  0  0  0  0
   26.8174  -14.5506   34.6852 H   0  0  0  0  0  0  0  0  0  0  0  0
   28.2319  -13.7488   34.5335 H   0  0  0  0  0  0  0  0  0  0  0  0
   28.1651  -14.7005   32.4170 H   0  0  0  0  0  0  0  0  0  0  0  0
   29.3338  -16.9710   32.8399 H   0  0  0  0  0  0  0  0  0  0  0  0
   27.6310  -16.1687   35.6414 H   0  0  0  0  0  0  0  0  0  0  0  0
   32.3174  -15.7130   38.2065 H   0  0  0  0  0  0  0  0  0  0  0  0
   32.0883  -14.5956   39.3751 H   0  0  0  0  0  0  0  0  0  0  0  0
   31.8688  -16.1797   39.7057 H   0  0  0  0  0  0  0  0  0  0  0  0
   30.5603  -14.5095   33.7593 H   0  0  0  0  0  0  0  0  0  0  0  0
   31.3836  -15.9191   33.7170 H   0  0  0  0  0  0  0  0  0  0  0  0
   27.3450  -14.6652   39.8006 H   0  0  0  0  0  0  0  0  0  0  0  0
   27.2394  -16.8465   32.1427 H   0  0  0  0  0  0  0  0  0  0  0  0
   29.9500  -15.5310   37.3060 C   0  0  0  0  0  0  0  0  0  0  0  0
   30.3580  -15.3550   38.6210 C   0  0  0  0  0  0  0  0  0  0  0  0
   29.3570  -15.0120   39.6000 C   0  0  0  0  0  0  0  0  0  0  0  0
   27.6420  -15.0620   37.8160 C   0  0  0  0  0  0  0  0  0  0  0  0
   27.7970  -14.6490   34.5100 C   0  0  2  0  0  0  0  0  0  0  0  0
   28.0490  -15.3470   33.1710 C   0  0  1  0  0  0  0  0  0  0  0  0
   29.3170  -16.1720   33.4410 C   0  0  1  0  0  0  0  0  0  0  0  0
   28.4440  -15.5990   35.5210 C   0  0  2  0  0  0  0  0  0  0  0  0
   31.7710  -15.4700   39.0080 C   0  0  0  0  0  0  0  0  0  0  0  0
   30.6320  -15.4000   33.3100 C   0  0  1  0  0  0  0  0  0  0  0  0
   28.0510  -14.8930   39.1300 N   0  0  0  0  0  0  0  0  0  0  0  0
   28.6700  -15.3910   36.9470 N   0  0  0  0  0  0  0  0  0  0  0  0
   31.2950  -14.2760   29.6830 O   0  5  0  0  0  0  0  0  0  0  0  0
   30.1550  -12.9350   31.3870 O   0  5  0  0  0  0  0  0  0  0  0  0
   29.6300  -14.7940   40.7770 O   0  0  0  0  0  0  0  0  0  0  0  0
   26.4700  -14.9020   37.4600 O   0  0  0  0  0  0  0  0  0  0  0  0
   32.5300  -13.4540   31.6760 O   0  0  0  0  0  0  0  0  0  0  0  0
   29.2020  -16.6020   34.8250 O   0  0  0  0  0  0  0  0  0  0  0  0
   27.0060  -16.2800   32.9330 O   0  0  0  0  0  0  0  0  0  0  0  0
   30.8500  -15.2290   31.8560 O   0  0  0  0  0  0  0  0  0  0  0  0
   31.2330  -13.9030   31.1510 P   0  0  0  0  0  0  0  0  0  0  0  0
  1 14  1  0  0  0  0
  2 18  1  0  0  0  0
  3 18  1  0  0  0  0
  4 19  1  0  0  0  0
  5 20  1  0  0  0  0
  6 21  1  0  0  0  0
  7 22  1  0  0  0  0
  8 22  1  0  0  0  0
  9 22  1  0  0  0  0
 10 23  1  0  0  0  0
 11 23  1  0  0  0  0
 12 24  1  0  0  0  0
 13 32  1  0  0  0  0
 14 15  2  0  0  0  0
 14 25  1  0  0  0  0
 15 16  1  0  0  0  0
 15 22  1  0  0  0  0
 16 24  1  0  0  0  0
 16 28  2  0  0  0  0
 17 24  1  0  0  0  0
 17 25  1  0  0  0  0
 17 29  2  0  0  0  0
 18 19  1  0  0  0  0
 18 21  1  0  0  0  0
 19 20  1  0  0  0  0
 19 32  1  0  0  0  0
 20 23  1  0  0  0  0
 20 31  1  0  0  0  0
 21 25  1  0  0  0  0
 21 31  1  0  0  0  0
 23 33  1  0  0  0  0
 26 34  1  0  0  0  0
 27 34  1  0  0  0  0
 30 34  2  0  0  0  0
 33 34  1  0  0  0  0
M  CHG  2  26  -1  27  -1
M  END
> <scpdb_id>
1tys_1

$$$$
