@<TRIPOS>MOLECULE
1tys_TMP_1_ligand
   34    35     1     0     0
SMALL
NO_CHARGES


@<TRIPOS>ATOM
     1 P           31.2330   -13.9030    31.1510 P.3          1 TMP565   0.0000
     2 O1P         32.5300   -13.4540    31.6760 O.co2        1 TMP565   0.0000
     3 O2P         31.2950   -14.2760    29.6830 O.co2        1 TMP565  -1.0000
     4 O3P         30.1550   -12.9350    31.3870 O.co2        1 TMP565  -1.0000
     5 O5'         30.8500   -15.2290    31.8560 O.3          1 TMP565   0.0000
     6 C5'         30.6320   -15.4000    33.3100 C.3          1 TMP565   0.0000
     7 C4'         29.3170   -16.1720    33.4410 C.3          1 TMP565   0.0000
     8 O4'         29.2020   -16.6020    34.8250 O.3          1 TMP565   0.0000
     9 C3'         28.0490   -15.3470    33.1710 C.3          1 TMP565   0.0000
    10 O3'         27.0060   -16.2800    32.9330 O.3          1 TMP565   0.0000
    11 C2'         27.7970   -14.6490    34.5100 C.3          1 TMP565   0.0000
    12 C1'         28.4440   -15.5990    35.5210 C.3          1 TMP565   0.0000
    13 N1          28.6700   -15.3910    36.9470 N.pl3        1 TMP565   0.0000
    14 C2          27.6420   -15.0620    37.8160 C.2          1 TMP565   0.0000
    15 O2          26.4700   -14.9020    37.4600 O.2          1 TMP565   0.0000
    16 N3          28.0510   -14.8930    39.1300 N.pl3        1 TMP565   0.0000
    17 C4          29.3570   -15.0120    39.6000 C.2          1 TMP565   0.0000
    18 O4          29.6300   -14.7940    40.7770 O.2          1 TMP565   0.0000
    19 C5          30.3580   -15.3550    38.6210 C.2          1 TMP565   0.0000
    20 C5M         31.7710   -15.4700    39.0080 C.3          1 TMP565   0.0000
    21 C6          29.9500   -15.5310    37.3060 C.2          1 TMP565   0.0000
    22 H5'1        30.5603   -14.5095    33.7593 H            1 TMP565   0.0000
    23 H5'2        31.3836   -15.9191    33.7170 H            1 TMP565   0.0000
    24 H4'         29.3338   -16.9710    32.8399 H            1 TMP565   0.0000
    25 H3'         28.1651   -14.7005    32.4170 H            1 TMP565   0.0000
    26 H5          27.2394   -16.8465    32.1427 H            1 TMP565   0.0000
    27 H2'1        26.8174   -14.5506    34.6852 H            1 TMP565   0.0000
    28 H2'2        28.2319   -13.7488    34.5335 H            1 TMP565   0.0000
    29 H1'         27.6310   -16.1687    35.6414 H            1 TMP565   0.0000
    30 H9          27.3450   -14.6652    39.8006 H            1 TMP565   0.0000
    31 H5M1        32.3174   -15.7130    38.2065 H            1 TMP565   0.0000
    32 H5M2        32.0883   -14.5956    39.3751 H            1 TMP565   0.0000
    33 H5M3        31.8688   -16.1797    39.7057 H            1 TMP565   0.0000
    34 H13         30.6291   -15.7679    36.6113 H            1 TMP565   0.0000
@<TRIPOS>BOND
     1    1    2      ar
     2    1    3      ar
     3    1    4      ar
     4    1    5       1
     5    5    6       1
     6    6    7       1
     7    7    8       1
     8    7    9       1
     9    8   12       1
    10    9   10       1
    11    9   11       1
    12   11   12       1
    13   12   13       1
    14   13   14       1
    15   13   21       1
    16   14   15       2
    17   14   16       1
    18   16   17       1
    19   17   18       2
    20   17   19       1
    21   19   20       1
    22   19   21       2
    23   21   34       1
    24   20   33       1
    25    6   22       1
    26    6   23       1
    27    7   24       1
    28    9   25       1
    29   10   26       1
    30   11   27       1
    31   11   28       1
    32   12   29       1
    33   16   30       1
    34   20   31       1
    35   20   32       1
@<TRIPOS>SUBSTRUCTURE
     1 TMP565      1 GROUP             4 A     TMP     0 **** TMP A 565
