#    Name: 44101
#    Modification time : Tue Aug  8 19:16:20 2017

@<TRIPOS>MOLECULE
44101
   68     0     6     0     0
SMALL
NO_CHARGES


@<TRIPOS>ATOM
      1 N         -11.6170   21.9290    7.7160 N.am      1 SEL1        0.0000 
      2 CA         -3.2350   18.1350    5.0020 C.3       2 GLL5        0.0000 
      3 CA         -3.5070   22.6250    3.0850 C.3       2 GLL5        0.0000 
      4 CA         -1.6690   25.5510    5.1790 C.3       2 GLL5        0.0000 
      5 CA         -3.5570   25.6920    3.2230 C.3       2 GLL5        0.0000 
      6 CA         -9.2330   21.0860    7.8540 C.3       2 GLL5        0.0000 
      7 CA        -10.0430   22.2850    5.7700 C.3       2 GLL5        0.0000 
      8 CA         -8.7200   22.1190    5.1660 C.3       2 GLL5        0.0000 
      9 CA         -1.0440   18.6180    3.4460 C.3       2 GLL5        0.0000 
     10 CA         -1.1390   20.8080    4.0490 C.3       2 GLL5        0.0000 
     11 CA         -4.4250   17.7970    5.8140 C.3       2 GLL5        0.0000 
     12 CA         -5.5130   18.7770    5.9610 C.3       2 GLL5        0.0000 
     13 CA         -5.4140   20.1060    5.2910 C.3       2 GLL5        0.0000 
     14 CA         -7.9070   20.9220    7.2500 C.3       2 GLL5        0.0000 
     15 CA         -1.8520   19.7530    3.4870 C.3       2 GLL5        0.0000 
     16 N         -13.6650   21.3630    6.2100 N.am      3 SEP1        0.0000 
     17 CA         -1.0620   14.5530    5.1310 C.3       4 GLP5        0.0000 
     18 CA         -5.9480   21.3740   -0.1140 C.3       4 GLP5        0.0000 
     19 CA          0.8180   23.6440    3.0610 C.3       4 GLP5        0.0000 
     20 CA         -2.9500   24.4410   -0.6700 C.3       4 GLP5        0.0000 
     21 CA          0.3940   22.6270    7.4890 C.3       4 GLP5        0.0000 
     22 CA         -3.4430   23.9370    8.3450 C.3       4 GLP5        0.0000 
     23 CA         -5.5540   26.7100    6.4190 C.3       4 GLP5        0.0000 
     24 CA          1.0460   28.2080    4.9130 C.3       4 GLP5        0.0000 
     25 CA         -2.6700   29.4460    4.2420 C.3       4 GLP5        0.0000 
     26 CA         -6.2960   26.0420    1.3580 C.3       4 GLP5        0.0000 
     27 CA         -9.4960   22.3650   11.5240 C.3       4 GLP5        0.0000 
     28 CA        -10.1260   17.3330    5.5930 C.3       4 GLP5        0.0000 
     29 CA        -11.1750   25.3850    4.1700 C.3       4 GLP5        0.0000 
     30 CA         -8.7250   25.9230    4.2720 C.3       4 GLP5        0.0000 
     31 CA          2.0790   19.2390    1.0220 C.3       4 GLP5        0.0000 
     32 CA         -0.6310   14.8730    2.6800 C.3       4 GLP5        0.0000 
     33 CA          1.7800   18.0320    6.4740 C.3       4 GLP5        0.0000 
     34 CA         -1.9260   17.1030    9.0790 C.3       4 GLP5        0.0000 
     35 CA         -7.8860   17.0580    8.3550 C.3       4 GLP5        0.0000 
     36 CA         -7.0550   18.1730    2.1240 C.3       4 GLP5        0.0000 
     37 CA        -11.2070   19.0890    4.1640 C.3       4 GLP5        0.0000 
     38 CA         -0.4370   21.0830    7.1120 C.3       4 GLP5        0.0000 
     39 N         -12.6410   21.6460    6.9630 N.am      5 SEC1        0.0000 
     40 CA         -2.1485   16.3440    5.0665 C.3       6 GLC5        0.0000 
     41 CA         -4.7275   21.9995    1.4855 C.3       6 GLC5        0.0000 
     42 CA         -1.3445   23.1345    3.0730 C.3       6 GLC5        0.0000 
     43 CA         -3.2285   23.5330    1.2075 C.3       6 GLC5        0.0000 
     44 CA         -0.6375   24.0890    6.3340 C.3       6 GLC5        0.0000 
     45 CA         -2.5560   24.7440    6.7620 C.3       6 GLC5        0.0000 
     46 CA         -3.6115   26.1305    5.7990 C.3       6 GLC5        0.0000 
     47 CA         -0.3115   26.8795    5.0460 C.3       6 GLC5        0.0000 
     48 CA         -0.4255   24.5975    4.1200 C.3       6 GLC5        0.0000 
     49 CA         -2.1695   27.4985    4.7105 C.3       6 GLC5        0.0000 
     50 CA         -4.5555   26.2010    4.8210 C.3       6 GLC5        0.0000 
     51 CA         -3.2535   25.0665    1.2765 C.3       6 GLC5        0.0000 
     52 CA         -3.1135   27.5690    3.7325 C.3       6 GLC5        0.0000 
     53 CA         -4.9265   25.8670    2.2905 C.3       6 GLC5        0.0000 
     54 CA         -9.3645   21.7255    9.6890 C.3       6 GLC5        0.0000 
     55 CA         -9.6795   19.2095    6.7235 C.3       6 GLC5        0.0000 
     56 CA        -10.6090   23.8350    4.9700 C.3       6 GLC5        0.0000 
     57 CA         -8.7225   24.0210    4.7190 C.3       6 GLC5        0.0000 
     58 CA          0.5175   18.9285    2.2340 C.3       6 GLC5        0.0000 
     59 CA         -0.8375   16.7455    3.0630 C.3       6 GLC5        0.0000 
     60 CA          0.3680   18.3250    4.9600 C.3       6 GLC5        0.0000 
     61 CA         -0.3725   21.7175    5.7690 C.3       6 GLC5        0.0000 
     62 CA         -0.1605   22.2260    3.5550 C.3       6 GLC5        0.0000 
     63 CA         -2.8780   17.5345    7.2435 C.3       6 GLC5        0.0000 
     64 CA         -6.4275   17.6725    7.1212 C.3       6 GLC5        0.0000 
     65 CA         -5.9539   19.0584    3.5910 C.3       6 GLC5        0.0000 
     66 CA         -8.2280   19.0310    7.9535 C.3       6 GLC5        0.0000 
     67 CA        -10.3260   20.5806    4.9841 C.3       6 GLC5        0.0000 
     68 CA         -1.1025   20.0953    5.3964 C.3       6 GLC5        0.0000 
@<TRIPOS>BOND
@<TRIPOS>SUBSTRUCTURE
     1 SEL1        1 GROUP        1 Z    SEL  0     ROOT SEL Z 0
     2 GLL5        2 GROUP        1 Z    GLL  0     **** GLL Z 4
     3 SEP1       16 GROUP        1 Z    SEP  0     **** SEP Z 7
     4 GLP5       17 GROUP        1 Z    GLP  0     **** GLP Z 11
     5 SEC1       39 GROUP        1 Z    SEC  0     **** SEC Z 14
     6 GLC5       40 GROUP        1 Z    GLC  0     **** GLC Z 18
@<TRIPOS>SET

