4iw8_KN3_1_ligand
  -OEChem-08111718373D

 43 45  0     1  0  0  0  0  0999 V2000
   -4.4897   16.9051    6.2616 H   0  0  0  0  0  0  0  0  0  0  0  0
   -6.3182   18.5521    6.5097 H   0  0  0  0  0  0  0  0  0  0  0  0
   -7.1785   20.4582    7.7542 H   0  0  0  0  0  0  0  0  0  0  0  0
   -2.4964   17.4684    4.9015 H   0  0  0  0  0  0  0  0  0  0  0  0
   -9.4104   20.7325    8.7725 H   0  0  0  0  0  0  0  0  0  0  0  0
  -10.7702   22.7510    5.2660 H   0  0  0  0  0  0  0  0  0  0  0  0
   -1.5980   22.9282    4.2389 H   0  0  0  0  0  0  0  0  0  0  0  0
   -1.8444   26.5354    5.1683 H   0  0  0  0  0  0  0  0  0  0  0  0
   -1.9467   25.1725    6.0620 H   0  0  0  0  0  0  0  0  0  0  0  0
   -0.6932   25.3847    5.0371 H   0  0  0  0  0  0  0  0  0  0  0  0
   -3.4846   26.6592    3.4665 H   0  0  0  0  0  0  0  0  0  0  0  0
   -3.3900   25.5815    2.2432 H   0  0  0  0  0  0  0  0  0  0  0  0
   -4.4741   25.3603    3.4443 H   0  0  0  0  0  0  0  0  0  0  0  0
   -4.0608   23.2864    2.5792 H   0  0  0  0  0  0  0  0  0  0  0  0
   -3.0590   22.0041    2.4417 H   0  0  0  0  0  0  0  0  0  0  0  0
  -11.7954   21.5756    8.6343 H   0  0  0  0  0  0  0  0  0  0  0  0
   -7.5530   22.5129    3.4397 H   0  0  0  0  0  0  0  0  0  0  0  0
   -4.4250   17.7970    5.8140 C   0  0  0  0  0  0  0  0  0  0  0  0
   -5.5130   18.7770    5.9610 C   0  0  0  0  0  0  0  0  0  0  0  0
   -7.9070   20.9220    7.2500 C   0  0  0  0  0  0  0  0  0  0  0  0
   -3.2350   18.1350    5.0020 C   0  0  0  0  0  0  0  0  0  0  0  0
   -9.2330   21.0860    7.8540 C   0  0  0  0  0  0  0  0  0  0  0  0
  -10.0430   22.2850    5.7700 C   0  0  0  0  0  0  0  0  0  0  0  0
   -5.4140   20.1060    5.2910 C   0  0  0  0  0  0  0  0  0  0  0  0
   -7.6560   21.4410    5.9050 C   0  0  0  0  0  0  0  0  0  0  0  0
   -3.1320   19.4410    4.3440 C   0  0  0  0  0  0  0  0  0  0  0  0
   -4.2420   20.4460    4.4900 C   0  0  0  0  0  0  0  0  0  0  0  0
  -10.2970   21.7660    7.1150 C   0  0  0  0  0  0  0  0  0  0  0  0
   -8.7200   22.1190    5.1660 C   0  0  0  0  0  0  0  0  0  0  0  0
   -6.3320   21.2960    5.2550 C   0  0  0  0  0  0  0  0  0  0  0  0
   -2.3840   23.4190    3.8630 C   0  0  0  0  0  0  0  0  0  0  0  0
   -2.4870   24.8630    4.0360 C   0  0  0  0  0  0  0  0  0  0  0  0
   -1.6690   25.5510    5.1790 C   0  0  0  0  0  0  0  0  0  0  0  0
   -3.5570   25.6920    3.2230 C   0  0  0  0  0  0  0  0  0  0  0  0
   -3.5070   22.6250    3.0850 C   0  0  1  0  0  0  0  0  0  0  0  0
   -1.8520   19.7530    3.4870 C   0  0  2  0  0  0  0  0  0  0  0  0
   -5.7140   22.2910    4.4500 N   0  0  0  0  0  0  0  0  0  0  0  0
   -4.4430   21.7990    3.9680 N   0  0  0  0  0  0  0  0  0  0  0  0
  -11.6170   21.9290    7.7160 O   0  0  0  0  0  0  0  0  0  0  0  0
   -8.4590   22.6250    3.8480 O   0  0  0  0  0  0  0  0  0  0  0  0
   -2.2340   20.0780    2.1830 F   0  0  0  0  0  0  0  0  0  0  0  0
   -1.0440   18.6180    3.4460 F   0  0  0  0  0  0  0  0  0  0  0  0
   -1.1390   20.8080    4.0490 F   0  0  0  0  0  0  0  0  0  0  0  0
  1 18  1  0  0  0  0
  2 19  1  0  0  0  0
  3 20  1  0  0  0  0
  4 21  1  0  0  0  0
  5 22  1  0  0  0  0
  6 23  1  0  0  0  0
  7 31  1  0  0  0  0
  8 33  1  0  0  0  0
  9 33  1  0  0  0  0
 10 33  1  0  0  0  0
 11 34  1  0  0  0  0
 12 34  1  0  0  0  0
 13 34  1  0  0  0  0
 14 35  1  0  0  0  0
 15 35  1  0  0  0  0
 16 39  1  0  0  0  0
 17 40  1  0  0  0  0
 18 19  1  0  0  0  0
 18 21  2  0  0  0  0
 19 24  2  0  0  0  0
 20 22  1  0  0  0  0
 20 25  2  0  0  0  0
 21 26  1  0  0  0  0
 22 28  2  0  0  0  0
 23 28  1  0  0  0  0
 23 29  2  0  0  0  0
 24 27  1  0  0  0  0
 24 30  1  0  0  0  0
 25 29  1  0  0  0  0
 25 30  1  0  0  0  0
 26 27  2  0  0  0  0
 26 36  1  0  0  0  0
 27 38  1  0  0  0  0
 28 39  1  0  0  0  0
 29 40  1  0  0  0  0
 30 37  2  0  0  0  0
 31 32  2  0  0  0  0
 31 35  1  0  0  0  0
 32 33  1  0  0  0  0
 32 34  1  0  0  0  0
 35 38  1  0  0  0  0
 36 41  1  0  0  0  0
 36 42  1  0  0  0  0
 36 43  1  0  0  0  0
 37 38  1  0  0  0  0
M  END
> <scpdb_id>
4iw8_1

$$$$
