@<TRIPOS>MOLECULE
4iw8_KN3_1_ligand
   43    45     1     0     0
SMALL
NO_CHARGES


@<TRIPOS>ATOM
     1 CAA         -3.2350    18.1350     5.0020 C.ar         1 KN3601   0.0000
     2 CAB         -4.4250    17.7970     5.8140 C.ar         1 KN3601   0.0000
     3 CAC         -5.5130    18.7770     5.9610 C.ar         1 KN3601   0.0000
     4 CAD         -5.4140    20.1060     5.2910 C.ar         1 KN3601   0.0000
     5 CAE         -4.2420    20.4460     4.4900 C.ar         1 KN3601   0.0000
     6 CAF         -3.1320    19.4410     4.3440 C.ar         1 KN3601   0.0000
     7 CAG         -6.3320    21.2960     5.2550 C.2          1 KN3601   0.0000
     8 NAH         -5.7140    22.2910     4.4500 N.2          1 KN3601   0.0000
     9 NAI         -4.4430    21.7990     3.9680 N.pl3        1 KN3601   0.0000
    10 CAJ         -7.6560    21.4410     5.9050 C.ar         1 KN3601   0.0000
    11 CAK         -3.5070    22.6250     3.0850 C.3          1 KN3601   0.0000
    12 CAL         -2.3840    23.4190     3.8630 C.2          1 KN3601   0.0000
    13 CAM         -2.4870    24.8630     4.0360 C.2          1 KN3601   0.0000
    14 CAN         -1.6690    25.5510     5.1790 C.3          1 KN3601   0.0000
    15 CAO         -3.5570    25.6920     3.2230 C.3          1 KN3601   0.0000
    16 CAP         -7.9070    20.9220     7.2500 C.ar         1 KN3601   0.0000
    17 CAQ         -9.2330    21.0860     7.8540 C.ar         1 KN3601   0.0000
    18 CAR        -10.2970    21.7660     7.1150 C.ar         1 KN3601   0.0000
    19 CAS        -10.0430    22.2850     5.7700 C.ar         1 KN3601   0.0000
    20 CAT         -8.7200    22.1190     5.1660 C.ar         1 KN3601   0.0000
    21 OAU         -8.4590    22.6250     3.8480 O.3          1 KN3601   0.0000
    22 OAV        -11.6170    21.9290     7.7160 O.3          1 KN3601   0.0000
    23 CAW         -1.8520    19.7530     3.4870 C.3          1 KN3601   0.0000
    24 FAX         -2.2340    20.0780     2.1830 F            1 KN3601   0.0000
    25 FAY         -1.0440    18.6180     3.4460 F            1 KN3601   0.0000
    26 FAZ         -1.1390    20.8080     4.0490 F            1 KN3601   0.0000
    27 HAA         -2.4964    17.4684     4.9015 H            1 KN3601   0.0000
    28 HAB         -4.4897    16.9051     6.2616 H            1 KN3601   0.0000
    29 HAC         -6.3182    18.5521     6.5097 H            1 KN3601   0.0000
    30 HAK1        -4.0608    23.2864     2.5792 H            1 KN3601   0.0000
    31 HAK2        -3.0590    22.0041     2.4417 H            1 KN3601   0.0000
    32 HAL         -1.5980    22.9282     4.2389 H            1 KN3601   0.0000
    33 HAN1        -1.8444    26.5354     5.1683 H            1 KN3601   0.0000
    34 HAN2        -1.9467    25.1725     6.0620 H            1 KN3601   0.0000
    35 HAN3        -0.6932    25.3847     5.0371 H            1 KN3601   0.0000
    36 HAO1        -3.4846    26.6592     3.4665 H            1 KN3601   0.0000
    37 HAO2        -3.3900    25.5815     2.2432 H            1 KN3601   0.0000
    38 HAO3        -4.4741    25.3603     3.4443 H            1 KN3601   0.0000
    39 HAP         -7.1785    20.4582     7.7542 H            1 KN3601   0.0000
    40 HAQ         -9.4104    20.7325     8.7725 H            1 KN3601   0.0000
    41 HAS        -10.7702    22.7510     5.2660 H            1 KN3601   0.0000
    42 HAU         -7.5530    22.5129     3.4397 H            1 KN3601   0.0000
    43 HAV        -11.7954    21.5756     8.6343 H            1 KN3601   0.0000
@<TRIPOS>BOND
     1    1    2      ar
     2    1    6      ar
     3    2    3      ar
     4    3    4      ar
     5    4    5      ar
     6    4    7       1
     7    5    6      ar
     8    5    9       1
     9    6   23       1
    10    7    8       2
    11    7   10       1
    12    8    9       1
    13    9   11       1
    14   10   16      ar
    15   10   20      ar
    16   11   12       1
    17   12   13       2
    18   13   14       1
    19   13   15       1
    20   16   17      ar
    21   17   18      ar
    22   18   19      ar
    23   18   22       1
    24   19   20      ar
    25   20   21       1
    26   23   24       1
    27   23   25       1
    28   23   26       1
    29    1   27       1
    30    2   28       1
    31    3   29       1
    32   11   30       1
    33   11   31       1
    34   12   32       1
    35   14   33       1
    36   14   34       1
    37   14   35       1
    38   15   36       1
    39   15   37       1
    40   15   38       1
    41   16   39       1
    42   17   40       1
    43   19   41       1
    44   21   42       1
    45   22   43       1
@<TRIPOS>SUBSTRUCTURE
     1 KN3601      1 GROUP             4 A     KN3     0 **** KN3 A 601
