#    Name: 14245
#    Modification time : Tue Aug  8 22:19:57 2017

@<TRIPOS>MOLECULE
14245
   79     0    12     0     0
SMALL
NO_CHARGES


@<TRIPOS>ATOM
      1 N          46.5300   26.2970   -0.4110 N.am      1 SEL1        0.0000 
      2 N          46.9090   28.3340    1.0980 N.am      1 SEL1        0.0000 
      3 N          44.1070   35.8550   -1.3800 N.am      1 SEL1        0.0000 
      4 N          41.4520   36.5350   -3.9010 N.am      1 SEL1        0.0000 
      5 N          42.3030   34.2760   -3.9690 N.am      1 SEL1        0.0000 
      6 N          43.0180   25.8810   -0.2390 N.am      1 SEL1        0.0000 
      7 N          44.4710   24.5380    1.3240 N.am      1 SEL1        0.0000 
      8 N          40.3090   26.5450    3.7930 N.am      1 SEL1        0.0000 
      9 N          42.3950   26.3000    6.7440 N.am      1 SEL1        0.0000 
     10 O          45.6030   29.8370   -3.9610 O.2       2 ALL2        0.0000 
     11 O          46.4120   32.5350   -3.9440 O.2       2 ALL2        0.0000 
     12 O          42.3080   38.0690   -2.3360 O.2       2 ALL2        0.0000 
     13 O          41.7160   28.7580    5.5700 O.2       2 ALL2        0.0000 
     14 O          42.3950   26.3000    6.7440 O.2       2 ALL2        0.0000 
     15 O          35.9890   23.8200    5.9480 O.2       2 ALL2        0.0000 
     16 NZ         46.5300   26.2970   -0.4110 N.4       3 LYL3        0.0000 
     17 CA         44.6680   29.5950   -0.5600 C.3       4 GLL5        0.0000 
     18 CA         45.6730   30.5100   -2.7030 C.3       4 GLL5        0.0000 
     19 CA         42.1310   27.6900    4.7480 C.3       4 GLL5        0.0000 
     20 CA         40.5430   22.2530    4.8320 C.3       4 GLL5        0.0000 
     21 CA         41.2380   27.5750    3.5160 C.3       4 GLL5        0.0000 
     22 CA         39.1880   22.0010    5.1180 C.3       4 GLL5        0.0000 
     23 N          48.2440   26.8740   -2.9570 N.am      5 SEP1        0.0000 
     24 N          44.9880   24.1340   -2.3890 N.am      5 SEP1        0.0000 
     25 N          44.8100   29.3490    2.8440 N.am      5 SEP1        0.0000 
     26 N          48.0100   27.7060    3.5190 N.am      5 SEP1        0.0000 
     27 N          46.0160   37.8430   -0.1700 N.am      5 SEP1        0.0000 
     28 N          39.6240   38.7020   -4.9190 N.am      5 SEP1        0.0000 
     29 N          43.5220   34.8050   -7.1220 N.am      5 SEP1        0.0000 
     30 N          41.7620   28.0410   -1.3020 N.am      5 SEP1        0.0000 
     31 N          40.7140   24.6490   -1.2200 N.am      5 SEP1        0.0000 
     32 N          42.8720   22.8680   -0.8310 N.am      5 SEP1        0.0000 
     33 N          46.8550   24.9660    2.8370 N.am      5 SEP1        0.0000 
     34 N          38.6570   24.9590    1.7750 N.am      5 SEP1        0.0000 
     35 N          45.5260   25.7290    7.3440 N.am      5 SEP1        0.0000 
     36 O          44.9400   32.1080   -6.0540 O.2       6 ALP2        0.0000 
     37 O          43.4130   30.5930   -5.6170 O.2       6 ALP2        0.0000 
     38 O          41.5480   40.6440   -3.4600 O.2       6 ALP2        0.0000 
     39 O          44.7510   40.2190   -1.1650 O.2       6 ALP2        0.0000 
     40 O          44.1360   29.6830    6.6280 O.2       6 ALP2        0.0000 
     41 O          41.2900   27.6510    8.9540 O.2       6 ALP2        0.0000 
     42 O          35.5930   26.7530    4.8940 O.2       6 ALP2        0.0000 
     43 NZ         48.6360   28.1360   -3.1010 N.4       7 LYP3        0.0000 
     44 CA         44.8210   30.7180    3.2080 C.3       8 GLP5        0.0000 
     45 CA         47.4160   29.2600   -6.3830 C.3       8 GLP5        0.0000 
     46 CA         42.4210   21.7370    1.8570 C.3       8 GLP5        0.0000 
     47 CA         37.6360   27.1430    1.5500 C.3       8 GLP5        0.0000 
     48 CA         38.9660   30.2180    5.5640 C.3       8 GLP5        0.0000 
     49 CA         37.3790   21.4810    2.3130 C.3       8 GLP5        0.0000 
     50 N          47.3870   26.5855   -1.6840 N.am      9 SEC1        0.0000 
     51 N          45.7590   25.2155   -1.4000 N.am      9 SEC1        0.0000 
     52 N          45.8595   28.8415    1.9710 N.am      9 SEC1        0.0000 
     53 N          47.4595   28.0200    2.3085 N.am      9 SEC1        0.0000 
     54 N          45.0615   36.8490   -0.7750 N.am      9 SEC1        0.0000 
     55 N          40.5380   37.6185   -4.4100 N.am      9 SEC1        0.0000 
     56 N          42.9125   34.5405   -5.5455 N.am      9 SEC1        0.0000 
     57 N          42.3900   26.9610   -0.7705 N.am      9 SEC1        0.0000 
     58 N          41.8660   25.2650   -0.7295 N.am      9 SEC1        0.0000 
     59 N          42.9450   24.3745   -0.5350 N.am      9 SEC1        0.0000 
     60 N          43.6715   23.7030    0.2465 N.am      9 SEC1        0.0000 
     61 N          45.6630   24.7520    2.0805 N.am      9 SEC1        0.0000 
     62 N          39.4830   25.7520    2.7840 N.am      9 SEC1        0.0000 
     63 N          43.9605   26.0145    7.0440 N.am      9 SEC1        0.0000 
     64 O          45.2715   30.9725   -5.0075 O.2      10 ALC2        0.0000 
     65 O          44.5080   30.2150   -4.7890 O.2      10 ALC2        0.0000 
     66 O          45.6760   32.3215   -4.9990 O.2      10 ALC2        0.0000 
     67 O          41.9280   39.3565   -2.8980 O.2      10 ALC2        0.0000 
     68 O          43.5295   39.1440   -1.7505 O.2      10 ALC2        0.0000 
     69 O          42.9260   29.2205    6.0990 O.2      10 ALC2        0.0000 
     70 O          41.8425   26.9755    7.8490 O.2      10 ALC2        0.0000 
     71 O          35.7910   25.2865    5.4210 O.2      10 ALC2        0.0000 
     72 NZ         47.5830   27.2165   -1.7560 N.4      11 LYC3        0.0000 
     73 CA         44.7445   30.1565    1.3240 C.3      12 GLC5        0.0000 
     74 CA         46.5445   29.8850   -4.5430 C.3      12 GLC5        0.0000 
     75 CA         43.4760   29.2040    3.9780 C.3      12 GLC5        0.0000 
     76 CA         41.4820   21.9950    3.3445 C.3      12 GLC5        0.0000 
     77 CA         39.6305   27.2958    2.2125 C.3      12 GLC5        0.0000 
     78 CA         40.3253   28.9252    4.8480 C.3      12 GLC5        0.0000 
     79 CA         38.5109   21.9383    3.6790 C.3      12 GLC5        0.0000 
@<TRIPOS>BOND
@<TRIPOS>SUBSTRUCTURE
     1 SEL1        1 GROUP        1 Z    SEL  0     ROOT SEL Z 0
     2 ALL2       10 GROUP        1 Z    ALL  0     **** ALL Z 1
     3 LYL3       16 GROUP        1 Z    LYL  0     **** LYL Z 2
     4 GLL5       17 GROUP        1 Z    GLL  0     **** GLL Z 4
     5 SEP1       23 GROUP        1 Z    SEP  0     **** SEP Z 7
     6 ALP2       36 GROUP        1 Z    ALP  0     **** ALP Z 8
     7 LYP3       43 GROUP        1 Z    LYP  0     **** LYP Z 9
     8 GLP5       44 GROUP        1 Z    GLP  0     **** GLP Z 11
     9 SEC1       50 GROUP        1 Z    SEC  0     **** SEC Z 14
    10 ALC2       64 GROUP        1 Z    ALC  0     **** ALC Z 15
    11 LYC3       72 GROUP        1 Z    LYC  0     **** LYC Z 16
    12 GLC5       73 GROUP        1 Z    GLC  0     **** GLC Z 18
@<TRIPOS>SET

