@<TRIPOS>MOLECULE
2fkn_NAD_3_ligand
   70    74     1     0     0
SMALL
NO_CHARGES


@<TRIPOS>ATOM
     1 PA          45.9640    27.4810     0.2540 P.3          1 NAD7555   0.0000
     2 O1A         46.5300    26.2970    -0.4110 O.co2        1 NAD7555   0.0000
     3 O2A         46.9090    28.3340     1.0980 O.co2        1 NAD7555  -1.0000
     4 O5B         45.2460    28.3460    -0.8690 O.3          1 NAD7555   0.0000
     5 C5B         44.6680    29.5950    -0.5600 C.3          1 NAD7555   0.0000
     6 C4B         44.3950    30.3140    -1.8760 C.3          1 NAD7555   0.0000
     7 O4B         43.9150    31.6070    -1.5530 O.3          1 NAD7555   0.0000
     8 C3B         45.6730    30.5100    -2.7030 C.3          1 NAD7555   0.0000
     9 O3B         45.6030    29.8370    -3.9610 O.3          1 NAD7555   0.0000
    10 C2B         45.7990    32.0300    -2.7850 C.3          1 NAD7555   0.0000
    11 O2B         46.4120    32.5350    -3.9440 O.3          1 NAD7555   0.0000
    12 C1B         44.3560    32.4230    -2.6150 C.3          1 NAD7555   0.0000
    13 N9A         44.0660    33.8390    -2.2950 N.pl3        1 NAD7555   0.0000
    14 C8A         44.6500    34.6290    -1.3350 C.2          1 NAD7555   0.0000
    15 N7A         44.1070    35.8550    -1.3800 N.2          1 NAD7555   0.0000
    16 C5A         43.1800    35.8690    -2.3520 C.ar         1 NAD7555   0.0000
    17 C6A         42.3150    36.8540    -2.8510 C.ar         1 NAD7555   0.0000
    18 N6A         42.3080    38.0690    -2.3360 N.pl3        1 NAD7555   0.0000
    19 N1A         41.4520    36.5350    -3.9010 N.ar         1 NAD7555   0.0000
    20 C2A         41.4520    35.2480    -4.4550 C.ar         1 NAD7555   0.0000
    21 N3A         42.3030    34.2760    -3.9690 N.ar         1 NAD7555   0.0000
    22 C4A         43.1480    34.5940    -2.9400 C.ar         1 NAD7555   0.0000
    23 O3          44.7650    27.0270     1.2090 O.3          1 NAD7555   0.0000
    24 PN          43.7210    25.7970     1.0520 P.3          1 NAD7555   0.0000
    25 O1N         43.0180    25.8810    -0.2390 O.co2        1 NAD7555   0.0000
    26 O2N         44.4710    24.5380     1.3240 O.co2        1 NAD7555  -1.0000
    27 O5D         42.8040    26.1500     2.3050 O.3          1 NAD7555   0.0000
    28 C5D         42.0120    27.3220     2.2340 C.3          1 NAD7555   0.0000
    29 C4D         41.2380    27.5750     3.5160 C.3          1 NAD7555   0.0000
    30 O4D         40.3090    26.5450     3.7930 O.3          1 NAD7555   0.0000
    31 C3D         42.1310    27.6900     4.7480 C.3          1 NAD7555   0.0000
    32 O3D         41.7160    28.7580     5.5700 O.3          1 NAD7555   0.0000
    33 C2D         42.0020    26.3370     5.3910 C.3          1 NAD7555   0.0000
    34 O2D         42.3950    26.3000     6.7440 O.3          1 NAD7555   0.0000
    35 C1D         40.5330    26.0410     5.1000 C.3          1 NAD7555   0.0000
    36 N1N         40.1100    24.6150     5.0980 N.ar         1 NAD7555   1.0000
    37 C2N         38.7840    24.3830     5.3750 C.ar         1 NAD7555   0.0000
    38 C3N         38.2970    23.0750     5.3980 C.ar         1 NAD7555   0.0000
    39 C7N         36.8470    22.8460     5.7000 C.2          1 NAD7555   0.0000
    40 O7N         36.4000    21.5550     5.7210 O.2          1 NAD7555   0.0000
    41 N7N         35.9890    23.8200     5.9480 N.am         1 NAD7555   0.0000
    42 C4N         39.1880    22.0010     5.1180 C.ar         1 NAD7555   0.0000
    43 C5N         40.5430    22.2530     4.8320 C.ar         1 NAD7555   0.0000
    44 C6N         40.9970    23.5760     4.8200 C.ar         1 NAD7555   0.0000
    45 H5B1        45.2986    30.1338    -0.0014 H            1 NAD7555   0.0000
    46 H5B2        43.8120    29.4606    -0.0608 H            1 NAD7555   0.0000
    47 H4B         43.7117    29.8141    -2.4082 H            1 NAD7555   0.0000
    48 H3B         46.4498    30.1492    -2.1869 H            1 NAD7555   0.0000
    49 H5          44.8317    30.1943    -4.4877 H            1 NAD7555   0.0000
    50 H2B         46.3119    32.3502    -1.9885 H            1 NAD7555   0.0000
    51 H7          45.8863    32.2561    -4.7477 H            1 NAD7555   0.0000
    52 H1B         43.8548    32.1715    -3.4430 H            1 NAD7555   0.0000
    53 H8A         45.3669    34.3364    -0.7022 H            1 NAD7555   0.0000
    54 H6A1        41.6868    38.7629    -2.7002 H            1 NAD7555   0.0000
    55 H6A2        42.9239    38.2958    -1.5816 H            1 NAD7555   0.0000
    56 H2A         40.8307    35.0320    -5.2082 H            1 NAD7555   0.0000
    57 H5D1        41.3622    27.2255     1.4801 H            1 NAD7555   0.0000
    58 H5D2        42.6104    28.1041     2.0603 H            1 NAD7555   0.0000
    59 H4D         40.7337    28.4324     3.4135 H            1 NAD7555   0.0000
    60 H3D         43.0782    27.8359     4.4624 H            1 NAD7555   0.0000
    61 H17         42.5067    29.1330     6.0539 H            1 NAD7555   0.0000
    62 H2D         42.5642    25.6874     4.8792 H            1 NAD7555   0.0000
    63 H19         41.8281    26.9313     7.2732 H            1 NAD7555   0.0000
    64 H1D         39.9640    26.5487     5.7469 H            1 NAD7555   0.0000
    65 H2N         38.1692    25.1498     5.5597 H            1 NAD7555   0.0000
    66 H7N1        35.0320    23.6056     6.1434 H            1 NAD7555   0.0000
    67 H7N2        36.2967    24.7714     5.9403 H            1 NAD7555   0.0000
    68 H4N         38.8488    21.0603     5.1245 H            1 NAD7555   0.0000
    69 H5N         41.1708    21.4985     4.6405 H            1 NAD7555   0.0000
    70 H6N         41.9546    23.7759     4.6127 H            1 NAD7555   0.0000
@<TRIPOS>BOND
     1    1    2      ar
     2    1    3      ar
     3    1    4       1
     4    1   23       1
     5    4    5       1
     6    5    6       1
     7    6    7       1
     8    6    8       1
     9    7   12       1
    10    8    9       1
    11    8   10       1
    12   10   11       1
    13   10   12       1
    14   12   13       1
    15   13   14       1
    16   13   22       1
    17   14   15       2
    18   15   16       1
    19   16   17      ar
    20   16   22      ar
    21   17   18       1
    22   17   19      ar
    23   19   20      ar
    24   20   21      ar
    25   21   22      ar
    26   23   24       1
    27   24   25      ar
    28   24   26      ar
    29   24   27       1
    30   27   28       1
    31   28   29       1
    32   29   30       1
    33   29   31       1
    34   30   35       1
    35   31   32       1
    36   31   33       1
    37   33   34       1
    38   33   35       1
    39   35   36       1
    40   36   37      ar
    41   36   44      ar
    42   37   38      ar
    43   38   39       1
    44   38   42      ar
    45   39   40       2
    46   39   41      am
    47   42   43      ar
    48   43   44      ar
    49   44   70       1
    50    5   45       1
    51    5   46       1
    52    6   47       1
    53    8   48       1
    54    9   49       1
    55   10   50       1
    56   11   51       1
    57   12   52       1
    58   14   53       1
    59   18   54       1
    60   18   55       1
    61   20   56       1
    62   43   69       1
    63   28   57       1
    64   28   58       1
    65   29   59       1
    66   31   60       1
    67   32   61       1
    68   33   62       1
    69   34   63       1
    70   35   64       1
    71   37   65       1
    72   41   66       1
    73   41   67       1
    74   42   68       1
@<TRIPOS>SUBSTRUCTURE
     1 NAD7555     1 GROUP             4 C     NAD     0 **** NAD C7555
