2fkn_NAD_3_ligand
  -OEChem-08111718373D

 70 74  0     1  0  0  0  0  0999 V2000
   41.1708   21.4985    4.6405 H   0  0  0  0  0  0  0  0  0  0  0  0
   38.8488   21.0603    5.1245 H   0  0  0  0  0  0  0  0  0  0  0  0
   41.9546   23.7759    4.6127 H   0  0  0  0  0  0  0  0  0  0  0  0
   38.1692   25.1498    5.5597 H   0  0  0  0  0  0  0  0  0  0  0  0
   40.8307   35.0320   -5.2082 H   0  0  0  0  0  0  0  0  0  0  0  0
   45.3669   34.3364   -0.7022 H   0  0  0  0  0  0  0  0  0  0  0  0
   46.4498   30.1492   -2.1869 H   0  0  0  0  0  0  0  0  0  0  0  0
   43.0782   27.8359    4.4624 H   0  0  0  0  0  0  0  0  0  0  0  0
   46.3119   32.3502   -1.9885 H   0  0  0  0  0  0  0  0  0  0  0  0
   42.5642   25.6874    4.8792 H   0  0  0  0  0  0  0  0  0  0  0  0
   43.7117   29.8141   -2.4082 H   0  0  0  0  0  0  0  0  0  0  0  0
   40.7337   28.4324    3.4135 H   0  0  0  0  0  0  0  0  0  0  0  0
   43.8548   32.1715   -3.4430 H   0  0  0  0  0  0  0  0  0  0  0  0
   39.9640   26.5487    5.7469 H   0  0  0  0  0  0  0  0  0  0  0  0
   45.2986   30.1338   -0.0014 H   0  0  0  0  0  0  0  0  0  0  0  0
   43.8120   29.4606   -0.0608 H   0  0  0  0  0  0  0  0  0  0  0  0
   41.3622   27.2255    1.4801 H   0  0  0  0  0  0  0  0  0  0  0  0
   42.6104   28.1041    2.0603 H   0  0  0  0  0  0  0  0  0  0  0  0
   41.6868   38.7629   -2.7002 H   0  0  0  0  0  0  0  0  0  0  0  0
   42.9239   38.2958   -1.5816 H   0  0  0  0  0  0  0  0  0  0  0  0
   35.0320   23.6056    6.1434 H   0  0  0  0  0  0  0  0  0  0  0  0
   36.2967   24.7714    5.9403 H   0  0  0  0  0  0  0  0  0  0  0  0
   44.8317   30.1943   -4.4877 H   0  0  0  0  0  0  0  0  0  0  0  0
   42.5067   29.1330    6.0539 H   0  0  0  0  0  0  0  0  0  0  0  0
   45.8863   32.2561   -4.7477 H   0  0  0  0  0  0  0  0  0  0  0  0
   41.8281   26.9313    7.2732 H   0  0  0  0  0  0  0  0  0  0  0  0
   40.5430   22.2530    4.8320 C   0  0  0  0  0  0  0  0  0  0  0  0
   39.1880   22.0010    5.1180 C   0  0  0  0  0  0  0  0  0  0  0  0
   40.9970   23.5760    4.8200 C   0  0  0  0  0  0  0  0  0  0  0  0
   38.7840   24.3830    5.3750 C   0  0  0  0  0  0  0  0  0  0  0  0
   41.4520   35.2480   -4.4550 C   0  0  0  0  0  0  0  0  0  0  0  0
   44.6500   34.6290   -1.3350 C   0  0  0  0  0  0  0  0  0  0  0  0
   38.2970   23.0750    5.3980 C   0  0  0  0  0  0  0  0  0  0  0  0
   43.1800   35.8690   -2.3520 C   0  0  0  0  0  0  0  0  0  0  0  0
   43.1480   34.5940   -2.9400 C   0  0  0  0  0  0  0  0  0  0  0  0
   42.3150   36.8540   -2.8510 C   0  0  0  0  0  0  0  0  0  0  0  0
   36.8470   22.8460    5.7000 C   0  0  0  0  0  0  0  0  0  0  0  0
   45.6730   30.5100   -2.7030 C   0  0  1  0  0  0  0  0  0  0  0  0
   42.1310   27.6900    4.7480 C   0  0  1  0  0  0  0  0  0  0  0  0
   45.7990   32.0300   -2.7850 C   0  0  2  0  0  0  0  0  0  0  0  0
   42.0020   26.3370    5.3910 C   0  0  2  0  0  0  0  0  0  0  0  0
   44.3950   30.3140   -1.8760 C   0  0  1  0  0  0  0  0  0  0  0  0
   41.2380   27.5750    3.5160 C   0  0  1  0  0  0  0  0  0  0  0  0
   44.3560   32.4230   -2.6150 C   0  0  2  0  0  0  0  0  0  0  0  0
   40.5330   26.0410    5.1000 C   0  0  2  0  0  0  0  0  0  0  0  0
   44.6680   29.5950   -0.5600 C   0  0  1  0  0  0  0  0  0  0  0  0
   42.0120   27.3220    2.2340 C   0  0  1  0  0  0  0  0  0  0  0  0
   42.3030   34.2760   -3.9690 N   0  0  0  0  0  0  0  0  0  0  0  0
   41.4520   36.5350   -3.9010 N   0  0  0  0  0  0  0  0  0  0  0  0
   44.1070   35.8550   -1.3800 N   0  0  0  0  0  0  0  0  0  0  0  0
   44.0660   33.8390   -2.2950 N   0  0  0  0  0  0  0  0  0  0  0  0
   40.1100   24.6150    5.0980 N   0  3  0  0  0  0  0  0  0  0  0  0
   42.3080   38.0690   -2.3360 N   0  0  0  0  0  0  0  0  0  0  0  0
   35.9890   23.8200    5.9480 N   0  0  0  0  0  0  0  0  0  0  0  0
   46.9090   28.3340    1.0980 O   0  5  0  0  0  0  0  0  0  0  0  0
   44.4710   24.5380    1.3240 O   0  5  0  0  0  0  0  0  0  0  0  0
   36.4000   21.5550    5.7210 O   0  0  0  0  0  0  0  0  0  0  0  0
   46.5300   26.2970   -0.4110 O   0  0  0  0  0  0  0  0  0  0  0  0
   43.0180   25.8810   -0.2390 O   0  0  0  0  0  0  0  0  0  0  0  0
   43.9150   31.6070   -1.5530 O   0  0  0  0  0  0  0  0  0  0  0  0
   40.3090   26.5450    3.7930 O   0  0  0  0  0  0  0  0  0  0  0  0
   45.6030   29.8370   -3.9610 O   0  0  0  0  0  0  0  0  0  0  0  0
   41.7160   28.7580    5.5700 O   0  0  0  0  0  0  0  0  0  0  0  0
   46.4120   32.5350   -3.9440 O   0  0  0  0  0  0  0  0  0  0  0  0
   42.3950   26.3000    6.7440 O   0  0  0  0  0  0  0  0  0  0  0  0
   45.2460   28.3460   -0.8690 O   0  0  0  0  0  0  0  0  0  0  0  0
   42.8040   26.1500    2.3050 O   0  0  0  0  0  0  0  0  0  0  0  0
   44.7650   27.0270    1.2090 O   0  0  0  0  0  0  0  0  0  0  0  0
   45.9640   27.4810    0.2540 P   0  0  2  0  0  0  0  0  0  0  0  0
   43.7210   25.7970    1.0520 P   0  0  1  0  0  0  0  0  0  0  0  0
  1 27  1  0  0  0  0
  2 28  1  0  0  0  0
  3 29  1  0  0  0  0
  4 30  1  0  0  0  0
  5 31  1  0  0  0  0
  6 32  1  0  0  0  0
  7 38  1  0  0  0  0
  8 39  1  0  0  0  0
  9 40  1  0  0  0  0
 10 41  1  0  0  0  0
 11 42  1  0  0  0  0
 12 43  1  0  0  0  0
 13 44  1  0  0  0  0
 14 45  1  0  0  0  0
 15 46  1  0  0  0  0
 16 46  1  0  0  0  0
 17 47  1  0  0  0  0
 18 47  1  0  0  0  0
 19 53  1  0  0  0  0
 20 53  1  0  0  0  0
 21 54  1  0  0  0  0
 22 54  1  0  0  0  0
 23 62  1  0  0  0  0
 24 63  1  0  0  0  0
 25 64  1  0  0  0  0
 26 65  1  0  0  0  0
 27 28  1  0  0  0  0
 27 29  2  0  0  0  0
 28 33  2  0  0  0  0
 29 52  1  0  0  0  0
 30 33  1  0  0  0  0
 30 52  2  0  0  0  0
 31 48  1  0  0  0  0
 31 49  2  0  0  0  0
 32 50  2  0  0  0  0
 32 51  1  0  0  0  0
 33 37  1  0  0  0  0
 34 35  1  0  0  0  0
 34 36  2  0  0  0  0
 34 50  1  0  0  0  0
 35 48  2  0  0  0  0
 35 51  1  0  0  0  0
 36 49  1  0  0  0  0
 36 53  1  0  0  0  0
 37 54  1  0  0  0  0
 37 57  2  0  0  0  0
 38 40  1  0  0  0  0
 38 42  1  0  0  0  0
 38 62  1  0  0  0  0
 39 41  1  0  0  0  0
 39 43  1  0  0  0  0
 39 63  1  0  0  0  0
 40 44  1  0  0  0  0
 40 64  1  0  0  0  0
 41 45  1  0  0  0  0
 41 65  1  0  0  0  0
 42 46  1  0  0  0  0
 42 60  1  0  0  0  0
 43 47  1  0  0  0  0
 43 61  1  0  0  0  0
 44 51  1  0  0  0  0
 44 60  1  0  0  0  0
 45 52  1  0  0  0  0
 45 61  1  0  0  0  0
 46 66  1  0  0  0  0
 47 67  1  0  0  0  0
 55 69  1  0  0  0  0
 56 70  1  0  0  0  0
 58 69  2  0  0  0  0
 59 70  2  0  0  0  0
 66 69  1  0  0  0  0
 67 70  1  0  0  0  0
 68 69  1  0  0  0  0
 68 70  1  0  0  0  0
M  CHG  3  55  -1  56  -1  52   1
M  END
> <scpdb_id>
2fkn_3

$$$$
