#    Name: 8237
#    Modification time : Tue Aug  8 19:57:22 2017

@<TRIPOS>MOLECULE
8237
   57     0    12     0     0
SMALL
NO_CHARGES


@<TRIPOS>ATOM
      1 N          35.4870   43.5640    3.2830 N.am      1 SEL1        0.0000 
      2 N          31.3150   41.5330    3.3180 N.am      1 SEL1        0.0000 
      3 N          31.9820   41.8010    1.2480 N.am      1 SEL1        0.0000 
      4 O          30.8200   39.0460   12.5460 O.2       2 ALL2        0.0000 
      5 O          29.4850   43.4830   12.2950 O.2       2 ALL2        0.0000 
      6 NZ         31.3150   41.5330    3.3180 N.4       3 LYL3        0.0000 
      7 NZ         31.9820   41.8010    1.2480 N.4       3 LYL3        0.0000 
      8 CA         33.2430   45.8440   10.0310 C.3       4 GLL5        0.0000 
      9 CA         35.2820   47.1680    9.4150 C.3       4 GLL5        0.0000 
     10 CA         35.8120   44.9250    6.0070 C.3       4 GLL5        0.0000 
     11 CA         34.5180   45.3610    8.0120 C.3       4 GLL5        0.0000 
     12 CA         33.4500   44.7060    7.5470 C.3       4 GLL5        0.0000 
     13 CA         34.2170   40.2980    3.2700 C.3       4 GLL5        0.0000 
     14 CA         34.9390   39.3650    2.1220 C.3       4 GLL5        0.0000 
     15 CA         34.7010   44.2260    5.4590 C.3       4 GLL5        0.0000 
     16 CA         33.5640   44.1560    6.2560 C.3       4 GLL5        0.0000 
     17 N          35.2580   46.1930    1.3610 N.am      5 SEP1        0.0000 
     18 N          29.5440   42.9080    0.6970 N.am      5 SEP1        0.0000 
     19 N          28.7630   42.1570    2.7500 N.am      5 SEP1        0.0000 
     20 O          32.5670   36.9070   12.3150 O.2       6 ALP2        0.0000 
     21 O          28.7750   37.5500   13.6850 O.2       6 ALP2        0.0000 
     22 O          27.2440   42.8570   13.7580 O.2       6 ALP2        0.0000 
     23 O          28.7730   46.4560   12.6080 O.2       6 ALP2        0.0000 
     24 NZ         28.5470   42.7960    1.5940 N.4       7 LYP3        0.0000 
     25 CA         36.8540   44.0610   11.6030 C.3       8 GLP5        0.0000 
     26 CA         32.2630   48.7570    7.3700 C.3       8 GLP5        0.0000 
     27 CA         31.4750   45.8450   13.8380 C.3       8 GLP5        0.0000 
     28 CA         33.7010   49.2800    7.4280 C.3       8 GLP5        0.0000 
     29 CA         34.1810   48.9560    4.9710 C.3       8 GLP5        0.0000 
     30 CA         36.7660   40.5710    6.1980 C.3       8 GLP5        0.0000 
     31 CA         30.6810   38.3770    3.0800 C.3       8 GLP5        0.0000 
     32 CA         31.1280   37.7900    0.6660 C.3       8 GLP5        0.0000 
     33 CA         31.5740   45.5940    3.2320 C.3       8 GLP5        0.0000 
     34 N          35.3725   44.8785    2.3220 N.am      9 SEC1        0.0000 
     35 N          30.4295   42.2205    2.0075 N.am      9 SEC1        0.0000 
     36 N          30.0390   41.8450    3.0340 N.am      9 SEC1        0.0000 
     37 N          30.7630   42.3545    0.9725 N.am      9 SEC1        0.0000 
     38 O          31.6935   37.9765   12.4305 O.2      10 ALC2        0.0000 
     39 O          29.7975   38.2980   13.1155 O.2      10 ALC2        0.0000 
     40 O          28.3645   43.1700   13.0265 O.2      10 ALC2        0.0000 
     41 O          29.1290   44.9695   12.4515 O.2      10 ALC2        0.0000 
     42 NZ         29.9310   42.1645    2.4560 N.4      11 LYC3        0.0000 
     43 NZ         30.2645   42.2985    1.4210 N.4      11 LYC3        0.0000 
     44 CA         35.0485   44.9525   10.8170 C.3      12 GLC5        0.0000 
     45 CA         32.7530   47.3005    8.7005 C.3      12 GLC5        0.0000 
     46 CA         32.3590   45.8445   11.9345 C.3      12 GLC5        0.0000 
     47 CA         36.0680   45.6145   10.5090 C.3      12 GLC5        0.0000 
     48 CA         34.4915   48.2240    8.4215 C.3      12 GLC5        0.0000 
     49 CA         34.9965   46.9405    5.4890 C.3      12 GLC5        0.0000 
     50 CA         35.6860   44.7110    9.8075 C.3      12 GLC5        0.0000 
     51 CA         32.8565   46.7315    7.4585 C.3      12 GLC5        0.0000 
     52 CA         35.4915   40.4345    4.7340 C.3      12 GLC5        0.0000 
     53 CA         32.4490   39.3375    3.1750 C.3      12 GLC5        0.0000 
     54 CA         33.0335   38.5775    1.3940 C.3      12 GLC5        0.0000 
     55 CA         36.0113   42.5733    5.9655 C.3      12 GLC5        0.0000 
     56 CA         32.8533   44.8925    4.5447 C.3      12 GLC5        0.0000 
     57 CA         34.4110   47.3525    7.5338 C.3      12 GLC5        0.0000 
@<TRIPOS>BOND
@<TRIPOS>SUBSTRUCTURE
     1 SEL1        1 GROUP        1 Z    SEL  0     ROOT SEL Z 0
     2 ALL2        4 GROUP        1 Z    ALL  0     **** ALL Z 1
     3 LYL3        6 GROUP        1 Z    LYL  0     **** LYL Z 2
     4 GLL5        8 GROUP        1 Z    GLL  0     **** GLL Z 4
     5 SEP1       17 GROUP        1 Z    SEP  0     **** SEP Z 7
     6 ALP2       20 GROUP        1 Z    ALP  0     **** ALP Z 8
     7 LYP3       24 GROUP        1 Z    LYP  0     **** LYP Z 9
     8 GLP5       25 GROUP        1 Z    GLP  0     **** GLP Z 11
     9 SEC1       34 GROUP        1 Z    SEC  0     **** SEC Z 14
    10 ALC2       38 GROUP        1 Z    ALC  0     **** ALC Z 15
    11 LYC3       42 GROUP        1 Z    LYC  0     **** LYC Z 16
    12 GLC5       44 GROUP        1 Z    GLC  0     **** GLC Z 18
@<TRIPOS>SET

