@<TRIPOS>MOLECULE
1rx3_MTX_1_ligand
   54    56     1     0     0
SMALL
NO_CHARGES


@<TRIPOS>ATOM
     1 N1          32.3990    40.5350    11.7190 N.ar         1 MTX161   1.0000
     2 C2          31.1770    40.2230    12.2120 C.ar         1 MTX161   0.0000
     3 NA2         30.8200    39.0460    12.5460 N.pl3        1 MTX161   0.0000
     4 N3          30.1770    41.2830    12.3980 N.ar         1 MTX161   0.0000
     5 C4          30.3860    42.5640    12.1150 C.ar         1 MTX161   0.0000
     6 NA4         29.4850    43.4830    12.2950 N.pl3        1 MTX161   0.0000
     7 C4A         31.6860    42.8850    11.5600 C.ar         1 MTX161   0.0000
     8 N5          31.8410    44.1790    11.0990 N.ar         1 MTX161   0.0000
     9 C6          33.0380    44.4620    10.5080 C.ar         1 MTX161   0.0000
    10 C7          33.9840    43.3890    10.4190 C.ar         1 MTX161   0.0000
    11 N8          33.8290    42.1480    10.8630 N.ar         1 MTX161   0.0000
    12 C8A         32.6290    41.9090    11.4130 C.ar         1 MTX161   0.0000
    13 C9          33.2430    45.8440    10.0310 C.3          1 MTX161   0.0000
    14 N10         34.5030    45.9470     9.2500 N.pl3        1 MTX161   0.0000
    15 CM          35.2820    47.1680     9.4150 C.3          1 MTX161   0.0000
    16 C11         34.7010    44.2260     5.4590 C.ar         1 MTX161   0.0000
    17 C12         35.8120    44.9250     6.0070 C.ar         1 MTX161   0.0000
    18 C13         35.7240    45.4890     7.2670 C.ar         1 MTX161   0.0000
    19 C14         34.5180    45.3610     8.0120 C.ar         1 MTX161   0.0000
    20 C15         33.4500    44.7060     7.5470 C.ar         1 MTX161   0.0000
    21 C16         33.5640    44.1560     6.2560 C.ar         1 MTX161   0.0000
    22 C           34.6290    43.5450     4.1340 C.2          1 MTX161   0.0000
    23 O           35.4870    43.5640     3.2830 O.2          1 MTX161   0.0000
    24 N           33.6690    42.6830     3.9230 N.am         1 MTX161   0.0000
    25 CA          33.6370    41.7080     2.8100 C.3          1 MTX161   0.0000
    26 CT          32.2040    41.6410     2.4450 C.2          1 MTX161   0.0000
    27 O1          31.3150    41.5330     3.3180 O.co2        1 MTX161   0.0000
    28 O2          31.9820    41.8010     1.2480 O.co2        1 MTX161  -1.0000
    29 CB          34.2170    40.2980     3.2700 C.3          1 MTX161   0.0000
    30 CG          34.9390    39.3650     2.1220 C.3          1 MTX161   0.0000
    31 CD          36.4230    39.7730     1.7610 C.2          1 MTX161   0.0000
    32 OE1         37.1920    39.5990     2.7550 O.co2        1 MTX161   0.0000
    33 OE2         36.7980    40.1310     0.5980 O.co2        1 MTX161  -1.0000
    34 HA21        29.9003    38.8852    12.9041 H            1 MTX161   0.0000
    35 HA22        31.4596    38.2833    12.4500 H            1 MTX161   0.0000
    36 HA41        29.6892    44.4350    12.0669 H            1 MTX161   0.0000
    37 HA42        28.5874    43.2382    12.6617 H            1 MTX161   0.0000
    38 H5          34.8549    43.5980     9.9743 H            1 MTX161   0.0000
    39 H6          33.2930    46.4591    10.8179 H            1 MTX161   0.0000
    40 H7          32.4736    46.1084     9.4496 H            1 MTX161   0.0000
    41 HM1         36.1011    47.1206     8.8433 H            1 MTX161   0.0000
    42 HM2         34.7296    47.9554     9.1414 H            1 MTX161   0.0000
    43 HM3         35.5497    47.2656    10.3735 H            1 MTX161   0.0000
    44 H11         36.6581    45.0088     5.4805 H            1 MTX161   0.0000
    45 H12         36.5030    45.9837     7.6522 H            1 MTX161   0.0000
    46 H13         32.6140    44.6115     8.0875 H            1 MTX161   0.0000
    47 H14         32.7674    43.6792     5.8844 H            1 MTX161   0.0000
    48 H15         32.8990    42.6824     4.5611 H            1 MTX161   0.0000
    49 HA          34.1677    42.0574     2.0378 H            1 MTX161   0.0000
    50 HB1         33.4572    39.7709     3.6507 H            1 MTX161   0.0000
    51 HB2         34.8941    40.4711     3.9853 H            1 MTX161   0.0000
    52 HG1         34.3907    39.4211     1.2876 H            1 MTX161   0.0000
    53 HG2         34.9489    38.4209     2.4515 H            1 MTX161   0.0000
    54 H21         33.1029    39.8390    11.5770 H            1 MTX161   0.0000
@<TRIPOS>BOND
     1    1    2      ar
     2    1   12      ar
     3    2    3       1
     4    2    4      ar
     5    4    5      ar
     6    5    6       1
     7    5    7      ar
     8    7    8      ar
     9    7   12      ar
    10    8    9      ar
    11    9   10      ar
    12    9   13       1
    13   10   11      ar
    14   11   12      ar
    15   13   14       1
    16   14   15       1
    17   14   19       1
    18   16   17      ar
    19   16   21      ar
    20   16   22       1
    21   17   18      ar
    22   18   19      ar
    23   19   20      ar
    24   20   21      ar
    25   22   23       2
    26   22   24      am
    27   24   25       1
    28   25   26       1
    29   25   29       1
    30   26   27      ar
    31   26   28      ar
    32   29   30       1
    33   30   31       1
    34   31   32      ar
    35   31   33      ar
    36    3   34       1
    37    3   35       1
    38    6   36       1
    39    6   37       1
    40   10   38       1
    41   13   39       1
    42   13   40       1
    43   15   41       1
    44   15   42       1
    45   15   43       1
    46   17   44       1
    47   18   45       1
    48   20   46       1
    49   21   47       1
    50   24   48       1
    51   25   49       1
    52   30   53       1
    53   29   50       1
    54   29   51       1
    55   30   52       1
    56    1   54       1
@<TRIPOS>SUBSTRUCTURE
     1 MTX161      1 GROUP             4 A     MTX     0 **** MTX A 161
