1rx3_MTX_1_ligand
  -OEChem-08111718373D

 53 55  0     1  0  0  0  0  0999 V2000
   36.6581   45.0088    5.4805 H   0  0  0  0  0  0  0  0  0  0  0  0
   32.7674   43.6792    5.8844 H   0  0  0  0  0  0  0  0  0  0  0  0
   36.5030   45.9837    7.6522 H   0  0  0  0  0  0  0  0  0  0  0  0
   32.6140   44.6115    8.0875 H   0  0  0  0  0  0  0  0  0  0  0  0
   34.8549   43.5980    9.9743 H   0  0  0  0  0  0  0  0  0  0  0  0
   36.1011   47.1206    8.8433 H   0  0  0  0  0  0  0  0  0  0  0  0
   34.7296   47.9554    9.1414 H   0  0  0  0  0  0  0  0  0  0  0  0
   35.5497   47.2656   10.3735 H   0  0  0  0  0  0  0  0  0  0  0  0
   33.2930   46.4591   10.8179 H   0  0  0  0  0  0  0  0  0  0  0  0
   32.4736   46.1084    9.4496 H   0  0  0  0  0  0  0  0  0  0  0  0
   34.3907   39.4211    1.2876 H   0  0  0  0  0  0  0  0  0  0  0  0
   34.9489   38.4209    2.4515 H   0  0  0  0  0  0  0  0  0  0  0  0
   33.4572   39.7709    3.6507 H   0  0  0  0  0  0  0  0  0  0  0  0
   34.8941   40.4711    3.9853 H   0  0  0  0  0  0  0  0  0  0  0  0
   34.1677   42.0574    2.0378 H   0  0  0  0  0  0  0  0  0  0  0  0
   29.6892   44.4350   12.0669 H   0  0  0  0  0  0  0  0  0  0  0  0
   28.5874   43.2382   12.6617 H   0  0  0  0  0  0  0  0  0  0  0  0
   29.9003   38.8852   12.9041 H   0  0  0  0  0  0  0  0  0  0  0  0
   31.4596   38.2833   12.4500 H   0  0  0  0  0  0  0  0  0  0  0  0
   32.8990   42.6824    4.5611 H   0  0  0  0  0  0  0  0  0  0  0  0
   35.8120   44.9250    6.0070 C   0  0  0  0  0  0  0  0  0  0  0  0
   33.5640   44.1560    6.2560 C   0  0  0  0  0  0  0  0  0  0  0  0
   35.7240   45.4890    7.2670 C   0  0  0  0  0  0  0  0  0  0  0  0
   33.4500   44.7060    7.5470 C   0  0  0  0  0  0  0  0  0  0  0  0
   33.9840   43.3890   10.4190 C   0  0  0  0  0  0  0  0  0  0  0  0
   34.7010   44.2260    5.4590 C   0  0  0  0  0  0  0  0  0  0  0  0
   31.6860   42.8850   11.5600 C   0  0  0  0  0  0  0  0  0  0  0  0
   34.5180   45.3610    8.0120 C   0  0  0  0  0  0  0  0  0  0  0  0
   33.0380   44.4620   10.5080 C   0  0  0  0  0  0  0  0  0  0  0  0
   32.6290   41.9090   11.4130 C   0  0  0  0  0  0  0  0  0  0  0  0
   30.3860   42.5640   12.1150 C   0  0  0  0  0  0  0  0  0  0  0  0
   31.1770   40.2230   12.2120 C   0  0  0  0  0  0  0  0  0  0  0  0
   34.6290   43.5450    4.1340 C   0  0  0  0  0  0  0  0  0  0  0  0
   36.4230   39.7730    1.7610 C   0  0  0  0  0  0  0  0  0  0  0  0
   32.2040   41.6410    2.4450 C   0  0  0  0  0  0  0  0  0  0  0  0
   35.2820   47.1680    9.4150 C   0  0  0  0  0  0  0  0  0  0  0  0
   33.2430   45.8440   10.0310 C   0  0  2  0  0  0  0  0  0  0  0  0
   34.9390   39.3650    2.1220 C   0  0  1  0  0  0  0  0  0  0  0  0
   34.2170   40.2980    3.2700 C   0  0  1  0  0  0  0  0  0  0  0  0
   33.6370   41.7080    2.8100 C   0  0  2  0  0  0  0  0  0  0  0  0
   33.8290   42.1480   10.8630 N   0  0  0  0  0  0  0  0  0  0  0  0
   31.8410   44.1790   11.0990 N   0  0  0  0  0  0  0  0  0  0  0  0
   30.1770   41.2830   12.3980 N   0  0  0  0  0  0  0  0  0  0  0  0
   32.3990   40.5350   11.7190 N   0  0  0  0  0  0  0  0  0  0  0  0
   29.4850   43.4830   12.2950 N   0  0  0  0  0  0  0  0  0  0  0  0
   30.8200   39.0460   12.5460 N   0  0  0  0  0  0  0  0  0  0  0  0
   33.6690   42.6830    3.9230 N   0  0  0  0  0  0  0  0  0  0  0  0
   34.5030   45.9470    9.2500 N   0  0  1  0  0  0  0  0  0  0  0  0
   36.7980   40.1310    0.5980 O   0  5  0  0  0  0  0  0  0  0  0  0
   31.9820   41.8010    1.2480 O   0  5  0  0  0  0  0  0  0  0  0  0
   35.4870   43.5640    3.2830 O   0  0  0  0  0  0  0  0  0  0  0  0
   37.1920   39.5990    2.7550 O   0  0  0  0  0  0  0  0  0  0  0  0
   31.3150   41.5330    3.3180 O   0  0  0  0  0  0  0  0  0  0  0  0
  1 21  1  0  0  0  0
  2 22  1  0  0  0  0
  3 23  1  0  0  0  0
  4 24  1  0  0  0  0
  5 25  1  0  0  0  0
  6 36  1  0  0  0  0
  7 36  1  0  0  0  0
  8 36  1  0  0  0  0
  9 37  1  0  0  0  0
 10 37  1  0  0  0  0
 11 38  1  0  0  0  0
 12 38  1  0  0  0  0
 13 39  1  0  0  0  0
 14 39  1  0  0  0  0
 15 40  1  0  0  0  0
 16 45  1  0  0  0  0
 17 45  1  0  0  0  0
 18 46  1  0  0  0  0
 19 46  1  0  0  0  0
 20 47  1  0  0  0  0
 21 23  1  0  0  0  0
 21 26  2  0  0  0  0
 22 24  2  0  0  0  0
 22 26  1  0  0  0  0
 23 28  2  0  0  0  0
 24 28  1  0  0  0  0
 25 29  2  0  0  0  0
 25 41  1  0  0  0  0
 26 33  1  0  0  0  0
 27 30  1  0  0  0  0
 27 31  1  0  0  0  0
 27 42  2  0  0  0  0
 28 48  1  0  0  0  0
 29 37  1  0  0  0  0
 29 42  1  0  0  0  0
 30 41  2  0  0  0  0
 30 44  1  0  0  0  0
 31 43  2  0  0  0  0
 31 45  1  0  0  0  0
 32 43  1  0  0  0  0
 32 44  2  0  0  0  0
 32 46  1  0  0  0  0
 33 47  1  0  0  0  0
 33 51  2  0  0  0  0
 34 38  1  0  0  0  0
 34 49  1  0  0  0  0
 34 52  2  0  0  0  0
 35 40  1  0  0  0  0
 35 50  1  0  0  0  0
 35 53  2  0  0  0  0
 36 48  1  0  0  0  0
 37 48  1  0  0  0  0
 38 39  1  0  0  0  0
 39 40  1  0  0  0  0
 40 47  1  0  0  0  0
M  CHG  2  50  -1  49  -1
M  END
> <scpdb_id>
1rx3_1

$$$$
