#    Name: 18463
#    Modification time : Tue Aug  8 19:05:45 2017

@<TRIPOS>MOLECULE
18463
   82     0    15     0     0
SMALL
NO_CHARGES


@<TRIPOS>ATOM
      1 N          23.2450  137.1880   24.4390 N.am      1 SEL1        0.0000 
      2 N          21.5480  138.0160   23.2650 N.am      1 SEL1        0.0000 
      3 N          22.4580  132.2380   26.6070 N.am      1 SEL1        0.0000 
      4 N          24.4890  130.5260   25.8730 N.am      1 SEL1        0.0000 
      5 N          18.6790  128.4450   24.6670 N.am      1 SEL1        0.0000 
      6 N          20.4570  126.7740   24.1760 N.am      1 SEL1        0.0000 
      7 N          19.9880  124.5680   25.3160 N.am      1 SEL1        0.0000 
      8 N          23.6520  126.4200   20.3020 N.am      1 SEL1        0.0000 
      9 N          21.7470  125.5290   18.5890 N.am      1 SEL1        0.0000 
     10 N          21.9340  119.8900   16.4490 N.am      1 SEL1        0.0000 
     11 O          24.4890  130.5260   25.8730 O.2       2 ALL2        0.0000 
     12 O          21.7470  125.5290   18.5890 O.2       2 ALL2        0.0000 
     13 O          20.2350  118.6400   17.5560 O.2       2 ALL2        0.0000 
     14 NZ         18.6790  128.4450   24.6670 N.4       3 LYL3        0.0000 
     15 NZ         18.4820  125.3950   23.4090 N.4       3 LYL3        0.0000 
     16 CA         21.7840  135.6450   23.3320 C.3       4 GLL5        0.0000 
     17 CA         20.6480  135.3990   22.5140 C.3       4 GLL5        0.0000 
     18 CA         20.2710  134.0680   22.2030 C.3       4 GLL5        0.0000 
     19 CA         23.3040  129.9150   23.8270 C.3       4 GLL5        0.0000 
     20 CA         22.2200  128.9830   23.2880 C.3       4 GLL5        0.0000 
     21 CA         23.0750  124.7780   21.9300 C.3       4 GLL5        0.0000 
     22 CA         22.5250  125.7730   20.8970 C.3       4 GLL5        0.0000 
     23 CA         22.6360  123.6450   19.9170 C.3       4 GLL5        0.0000 
     24 CZ         21.4043  134.3293   23.0210 C.ar      5 PHL6        0.0000 
     25 N          25.2350  139.0270   24.2260 N.am      6 SEP1        0.0000 
     26 N          25.2990  136.7730   26.5130 N.am      6 SEP1        0.0000 
     27 N          22.3660  140.3260   21.8140 N.am      6 SEP1        0.0000 
     28 N          20.6481  130.0077   28.2839 N.am      6 SEP1        0.0000 
     29 N          24.5280  130.1450   28.4880 N.am      6 SEP1        0.0000 
     30 N          18.3430  127.9320   27.4490 N.am      6 SEP1        0.0000 
     31 N          16.1460  127.4450   24.4790 N.am      6 SEP1        0.0000 
     32 N          20.6580  126.2700   27.5550 N.am      6 SEP1        0.0000 
     33 N          19.8930  123.8050   28.2480 N.am      6 SEP1        0.0000 
     34 N          24.3990  125.8380   17.3460 N.am      6 SEP1        0.0000 
     35 N          22.3730  118.5700   13.9970 N.am      6 SEP1        0.0000 
     36 O          24.6730  133.5210   27.5270 O.2       7 ALP2        0.0000 
     37 O          19.6770  125.7040   16.9640 O.2       7 ALP2        0.0000 
     38 O          19.7210  116.9300   15.3610 O.2       7 ALP2        0.0000 
     39 O          17.5280  118.1210   18.6230 O.2       7 ALP2        0.0000 
     40 NZ         16.1460  127.4450   24.4790 N.4       8 LYP3        0.0000 
     41 CA         20.5050  135.8860   26.8360 C.3       9 GLP5        0.0000 
     42 CA         19.3950  136.6370   26.1660 C.3       9 GLP5        0.0000 
     43 CA         20.5200  130.8540   19.8030 C.3       9 GLP5        0.0000 
     44 CA         27.5800  130.3560   22.7600 C.3       9 GLP5        0.0000 
     45 CA         25.0090  132.8860   21.2220 C.3       9 GLP5        0.0000 
     46 CA         21.4480  129.3680   19.3170 C.3       9 GLP5        0.0000 
     47 CA         26.5090  122.4770   23.0780 C.3       9 GLP5        0.0000 
     48 CA         26.0370  121.9000   19.5700 C.3       9 GLP5        0.0000 
     49 CA         23.2880  137.8240   19.9240 C.3       9 GLP5        0.0000 
     50 CA         16.3020  134.4490   22.8680 C.3       9 GLP5        0.0000 
     51 CZ         24.4437  134.0960   20.8317 C.ar     10 PHP6        0.0000 
     52 N          24.2400  138.1075   24.3325 N.am     11 SEC1        0.0000 
     53 N          24.2720  136.9805   25.4760 N.am     11 SEC1        0.0000 
     54 N          21.9570  139.1710   22.5395 N.am     11 SEC1        0.0000 
     55 N          21.5530  131.1228   27.4455 N.am     11 SEC1        0.0000 
     56 N          24.5085  130.3355   27.1805 N.am     11 SEC1        0.0000 
     57 N          18.5110  128.1885   26.0580 N.am     11 SEC1        0.0000 
     58 N          17.4125  127.9450   24.5730 N.am     11 SEC1        0.0000 
     59 N          20.5575  126.5220   25.8655 N.am     11 SEC1        0.0000 
     60 N          20.3230  125.4190   26.4355 N.am     11 SEC1        0.0000 
     61 N          19.9405  124.1865   26.7820 N.am     11 SEC1        0.0000 
     62 N          24.0255  126.1290   18.8240 N.am     11 SEC1        0.0000 
     63 N          23.0730  125.6835   17.9675 N.am     11 SEC1        0.0000 
     64 N          22.1535  119.2300   15.2230 N.am     11 SEC1        0.0000 
     65 O          24.5810  132.0235   26.7000 O.2      12 ALC2        0.0000 
     66 O          20.7120  125.6165   17.7765 O.2      12 ALC2        0.0000 
     67 O          19.9780  117.7850   16.4585 O.2      12 ALC2        0.0000 
     68 O          18.8815  118.3805   18.0895 O.2      12 ALC2        0.0000 
     69 NZ         17.4125  127.9450   24.5730 N.4      13 LYC3        0.0000 
     70 NZ         17.3140  126.4200   23.9440 N.4      13 LYC3        0.0000 
     71 CA         21.1445  135.7655   25.0840 C.3      14 GLC5        0.0000 
     72 CA         20.0215  136.0180   24.3400 C.3      14 GLC5        0.0000 
     73 CA         20.3955  132.4610   21.0030 C.3      14 GLC5        0.0000 
     74 CA         25.4420  130.1355   23.2935 C.3      14 GLC5        0.0000 
     75 CA         24.1565  131.4005   22.5245 C.3      14 GLC5        0.0000 
     76 CA         21.8340  129.1755   21.3025 C.3      14 GLC5        0.0000 
     77 CA         24.7920  123.6275   22.5040 C.3      14 GLC5        0.0000 
     78 CA         21.9865  127.5705   20.1070 C.3      14 GLC5        0.0000 
     79 CA         24.3365  122.7725   19.7435 C.3      14 GLC5        0.0000 
     80 CA         22.2520  136.6730   21.4235 C.3      14 GLC5        0.0000 
     81 CA         18.3807  134.5913   22.6133 C.3      14 GLC5        0.0000 
     82 CZ         22.9240  134.2127   21.9263 C.ar     15 PHC6        0.0000 
@<TRIPOS>BOND
@<TRIPOS>SUBSTRUCTURE
     1 SEL1        1 GROUP        1 Z    SEL  0     ROOT SEL Z 0
     2 ALL2       11 GROUP        1 Z    ALL  0     **** ALL Z 1
     3 LYL3       14 GROUP        1 Z    LYL  0     **** LYL Z 2
     4 GLL5       16 GROUP        1 Z    GLL  0     **** GLL Z 4
     5 PHL6       24 GROUP        1 Z    PHL  0     **** PHL Z 6
     6 SEP1       25 GROUP        1 Z    SEP  0     **** SEP Z 7
     7 ALP2       36 GROUP        1 Z    ALP  0     **** ALP Z 8
     8 LYP3       40 GROUP        1 Z    LYP  0     **** LYP Z 9
     9 GLP5       41 GROUP        1 Z    GLP  0     **** GLP Z 11
    10 PHP6       51 GROUP        1 Z    PHP  0     **** PHP Z 13
    11 SEC1       52 GROUP        1 Z    SEC  0     **** SEC Z 14
    12 ALC2       65 GROUP        1 Z    ALC  0     **** ALC Z 15
    13 LYC3       69 GROUP        1 Z    LYC  0     **** LYC Z 16
    14 GLC5       71 GROUP        1 Z    GLC  0     **** GLC Z 18
    15 PHC6       82 GROUP        1 Z    PHC  0     **** PHC Z 20
@<TRIPOS>SET

