2qtr_NXX_3_ligand
  -OEChem-08111718373D

 68 72  0     1  0  0  0  0  0999 V2000
   19.4758  133.8825   21.6258 H   0  0  0  0  0  0  0  0  0  0  0  0
   20.1140  136.1656   22.1574 H   0  0  0  0  0  0  0  0  0  0  0  0
   20.8024  132.0601   22.5296 H   0  0  0  0  0  0  0  0  0  0  0  0
   23.3282  134.7252   24.3944 H   0  0  0  0  0  0  0  0  0  0  0  0
   23.4024  121.0430   15.5923 H   0  0  0  0  0  0  0  0  0  0  0  0
   20.6286  122.1713   21.2649 H   0  0  0  0  0  0  0  0  0  0  0  0
   21.9037  126.4334   21.3188 H   0  0  0  0  0  0  0  0  0  0  0  0
   22.7314  129.5095   25.8114 H   0  0  0  0  0  0  0  0  0  0  0  0
   20.8879  124.7192   20.2066 H   0  0  0  0  0  0  0  0  0  0  0  0
   21.4401  131.2995   25.1557 H   0  0  0  0  0  0  0  0  0  0  0  0
   24.0128  125.0394   22.1586 H   0  0  0  0  0  0  0  0  0  0  0  0
   24.2066  129.5316   23.6311 H   0  0  0  0  0  0  0  0  0  0  0  0
   23.4170  123.7318   19.2985 H   0  0  0  0  0  0  0  0  0  0  0  0
   23.8730  132.5892   24.3234 H   0  0  0  0  0  0  0  0  0  0  0  0
   22.5285  123.8050   23.6823 H   0  0  0  0  0  0  0  0  0  0  0  0
   22.4883  125.4323   23.8124 H   0  0  0  0  0  0  0  0  0  0  0  0
   22.5364  128.0371   23.3599 H   0  0  0  0  0  0  0  0  0  0  0  0
   22.0458  129.2042   22.3285 H   0  0  0  0  0  0  0  0  0  0  0  0
   20.2020  117.9837   16.8022 H   0  0  0  0  0  0  0  0  0  0  0  0
   19.6341  118.5237   18.3468 H   0  0  0  0  0  0  0  0  0  0  0  0
   23.3964  127.3460   20.0242 H   0  0  0  0  0  0  0  0  0  0  0  0
   24.5317  131.4893   26.1380 H   0  0  0  0  0  0  0  0  0  0  0  0
   20.9198  125.2232   18.1175 H   0  0  0  0  0  0  0  0  0  0  0  0
   21.9537  133.0981   26.5296 H   0  0  0  0  0  0  0  0  0  0  0  0
   20.2710  134.0680   22.2030 C   0  0  0  0  0  0  0  0  0  0  0  0
   20.6480  135.3990   22.5140 C   0  0  0  0  0  0  0  0  0  0  0  0
   21.0470  133.0090   22.7290 C   0  0  0  0  0  0  0  0  0  0  0  0
   22.5240  134.5620   23.8230 C   0  0  0  0  0  0  0  0  0  0  0  0
   22.8050  120.9430   16.3880 C   0  0  0  0  0  0  0  0  0  0  0  0
   20.9380  121.8360   20.3750 C   0  0  0  0  0  0  0  0  0  0  0  0
   21.7840  135.6450   23.3320 C   0  0  0  0  0  0  0  0  0  0  0  0
   21.1510  120.6300   18.5740 C   0  0  0  0  0  0  0  0  0  0  0  0
   22.0430  121.7080   18.4920 C   0  0  0  0  0  0  0  0  0  0  0  0
   21.1080  119.7040   17.5050 C   0  0  0  0  0  0  0  0  0  0  0  0
   22.2200  137.0430   23.6990 C   0  0  0  0  0  0  0  0  0  0  0  0
   22.5250  125.7730   20.8970 C   0  0  1  0  0  0  0  0  0  0  0  0
   23.1950  130.2400   25.3100 C   0  0  1  0  0  0  0  0  0  0  0  0
   21.8140  124.9150   19.8840 C   0  0  2  0  0  0  0  0  0  0  0  0
   22.3970  131.5240   25.3400 C   0  0  2  0  0  0  0  0  0  0  0  0
   23.0750  124.7780   21.9300 C   0  0  1  0  0  0  0  0  0  0  0  0
   23.3040  129.9150   23.8270 C   0  0  1  0  0  0  0  0  0  0  0  0
   22.6360  123.6450   19.9170 C   0  0  2  0  0  0  0  0  0  0  0  0
   22.9750  132.2150   24.0920 C   0  0  2  0  0  0  0  0  0  0  0  0
   22.2740  124.6550   23.2210 C   0  0  1  0  0  0  0  0  0  0  0  0
   22.2200  128.9830   23.2880 C   0  0  2  0  0  0  0  0  0  0  0  0
   22.8700  121.8540   17.3920 N   0  0  0  0  0  0  0  0  0  0  0  0
   21.9340  119.8900   16.4490 N   0  0  0  0  0  0  0  0  0  0  0  0
   20.4820  120.7330   19.7540 N   0  0  0  0  0  0  0  0  0  0  0  0
   21.8840  122.4190   19.6000 N   0  0  0  0  0  0  0  0  0  0  0  0
   22.1520  133.2930   23.5250 N   0  3  0  0  0  0  0  0  0  0  0  0
   20.2350  118.6400   17.5560 N   0  0  0  0  0  0  0  0  0  0  0  0
   21.5480  138.0160   23.2650 O   0  5  0  0  0  0  0  0  0  0  0  0
   18.4820  125.3950   23.4090 O   0  5  0  0  0  0  0  0  0  0  0  0
   19.5400  128.1720   22.2860 O   0  5  0  0  0  0  0  0  0  0  0  0
   23.2450  137.1880   24.4390 O   0  0  0  0  0  0  0  0  0  0  0  0
   19.9880  124.5680   25.3160 O   0  0  0  0  0  0  0  0  0  0  0  0
   18.6790  128.4450   24.6670 O   0  0  0  0  0  0  0  0  0  0  0  0
   23.1010  123.5100   21.2710 O   0  0  0  0  0  0  0  0  0  0  0  0
   23.1530  131.1610   23.1490 O   0  0  0  0  0  0  0  0  0  0  0  0
   23.6520  126.4200   20.3020 O   0  0  0  0  0  0  0  0  0  0  0  0
   24.4890  130.5260   25.8730 O   0  0  0  0  0  0  0  0  0  0  0  0
   21.7470  125.5290   18.5890 O   0  0  0  0  0  0  0  0  0  0  0  0
   22.4580  132.2380   26.6070 O   0  0  0  0  0  0  0  0  0  0  0  0
   20.8640  124.6410   22.9610 O   0  0  0  0  0  0  0  0  0  0  0  0
   21.0130  129.1270   24.0250 O   0  0  0  0  0  0  0  0  0  0  0  0
   20.4570  126.7740   24.1760 O   0  0  0  0  0  0  0  0  0  0  0  0
   19.8580  125.2800   24.0110 P   0  0  1  0  0  0  0  0  0  0  0  0
   19.7700  128.1140   23.7510 P   0  0  2  0  0  0  0  0  0  0  0  0
  1 25  1  0  0  0  0
  2 26  1  0  0  0  0
  3 27  1  0  0  0  0
  4 28  1  0  0  0  0
  5 29  1  0  0  0  0
  6 30  1  0  0  0  0
  7 36  1  0  0  0  0
  8 37  1  0  0  0  0
  9 38  1  0  0  0  0
 10 39  1  0  0  0  0
 11 40  1  0  0  0  0
 12 41  1  0  0  0  0
 13 42  1  0  0  0  0
 14 43  1  0  0  0  0
 15 44  1  0  0  0  0
 16 44  1  0  0  0  0
 17 45  1  0  0  0  0
 18 45  1  0  0  0  0
 19 51  1  0  0  0  0
 20 51  1  0  0  0  0
 21 60  1  0  0  0  0
 22 61  1  0  0  0  0
 23 62  1  0  0  0  0
 24 63  1  0  0  0  0
 25 26  1  0  0  0  0
 25 27  2  0  0  0  0
 26 31  2  0  0  0  0
 27 50  1  0  0  0  0
 28 31  1  0  0  0  0
 28 50  2  0  0  0  0
 29 46  2  0  0  0  0
 29 47  1  0  0  0  0
 30 48  2  0  0  0  0
 30 49  1  0  0  0  0
 31 35  1  0  0  0  0
 32 33  2  0  0  0  0
 32 34  1  0  0  0  0
 32 48  1  0  0  0  0
 33 46  1  0  0  0  0
 33 49  1  0  0  0  0
 34 47  2  0  0  0  0
 34 51  1  0  0  0  0
 35 52  1  0  0  0  0
 35 55  2  0  0  0  0
 36 38  1  0  0  0  0
 36 40  1  0  0  0  0
 36 60  1  0  0  0  0
 37 39  1  0  0  0  0
 37 41  1  0  0  0  0
 37 61  1  0  0  0  0
 38 42  1  0  0  0  0
 38 62  1  0  0  0  0
 39 43  1  0  0  0  0
 39 63  1  0  0  0  0
 40 44  1  0  0  0  0
 40 58  1  0  0  0  0
 41 45  1  0  0  0  0
 41 59  1  0  0  0  0
 42 49  1  0  0  0  0
 42 58  1  0  0  0  0
 43 50  1  0  0  0  0
 43 59  1  0  0  0  0
 44 64  1  0  0  0  0
 45 65  1  0  0  0  0
 53 67  1  0  0  0  0
 54 68  1  0  0  0  0
 56 67  2  0  0  0  0
 57 68  2  0  0  0  0
 64 67  1  0  0  0  0
 65 68  1  0  0  0  0
 66 67  1  0  0  0  0
 66 68  1  0  0  0  0
M  CHG  4  52  -1  50   1  54  -1  53  -1
M  END
> <scpdb_id>
2qtr_3

$$$$
