@<TRIPOS>MOLECULE
2qtr_NXX_3_ligand
   68    72     1     0     0
SMALL
NO_CHARGES


@<TRIPOS>ATOM
     1 O7N         23.2450   137.1880    24.4390 O.co2        1 NXX191   0.0000
     2 C7N         22.2200   137.0430    23.6990 C.2          1 NXX191   0.0000
     3 O8N         21.5480   138.0160    23.2650 O.co2        1 NXX191  -1.0000
     4 C3N         21.7840   135.6450    23.3320 C.ar         1 NXX191   0.0000
     5 C4N         20.6480   135.3990    22.5140 C.ar         1 NXX191   0.0000
     6 C5N         20.2710   134.0680    22.2030 C.ar         1 NXX191   0.0000
     7 C6N         21.0470   133.0090    22.7290 C.ar         1 NXX191   0.0000
     8 C2N         22.5240   134.5620    23.8230 C.ar         1 NXX191   0.0000
     9 N1N         22.1520   133.2930    23.5250 N.ar         1 NXX191   1.0000
    10 C1M         22.9750   132.2150    24.0920 C.3          1 NXX191   0.0000
    11 C2M         22.3970   131.5240    25.3400 C.3          1 NXX191   0.0000
    12 O2M         22.4580   132.2380    26.6070 O.3          1 NXX191   0.0000
    13 C3M         23.1950   130.2400    25.3100 C.3          1 NXX191   0.0000
    14 O3M         24.4890   130.5260    25.8730 O.3          1 NXX191   0.0000
    15 O4M         23.1530   131.1610    23.1490 O.3          1 NXX191   0.0000
    16 C4M         23.3040   129.9150    23.8270 C.3          1 NXX191   0.0000
    17 C5M         22.2200   128.9830    23.2880 C.3          1 NXX191   0.0000
    18 O5M         21.0130   129.1270    24.0250 O.3          1 NXX191   0.0000
    19 PN          19.7700   128.1140    23.7510 P.3          1 NXX191   0.0000
    20 O1N         18.6790   128.4450    24.6670 O.co2        1 NXX191   0.0000
    21 O2N         19.5400   128.1720    22.2860 O.co2        1 NXX191  -1.0000
    22 O3A         20.4570   126.7740    24.1760 O.3          1 NXX191   0.0000
    23 PA          19.8580   125.2800    24.0110 P.3          1 NXX191   0.0000
    24 O1A         19.9880   124.5680    25.3160 O.co2        1 NXX191   0.0000
    25 O2A         18.4820   125.3950    23.4090 O.co2        1 NXX191  -1.0000
    26 O5B         20.8640   124.6410    22.9610 O.3          1 NXX191   0.0000
    27 C5B         22.2740   124.6550    23.2210 C.3          1 NXX191   0.0000
    28 C4B         23.0750   124.7780    21.9300 C.3          1 NXX191   0.0000
    29 C3B         22.5250   125.7730    20.8970 C.3          1 NXX191   0.0000
    30 O3B         23.6520   126.4200    20.3020 O.3          1 NXX191   0.0000
    31 C2B         21.8140   124.9150    19.8840 C.3          1 NXX191   0.0000
    32 O2P         21.7470   125.5290    18.5890 O.3          1 NXX191   0.0000
    33 C1B         22.6360   123.6450    19.9170 C.3          1 NXX191   0.0000
    34 O4B         23.1010   123.5100    21.2710 O.3          1 NXX191   0.0000
    35 N9A         21.8840   122.4190    19.6000 N.pl3        1 NXX191   0.0000
    36 C8A         20.9380   121.8360    20.3750 C.2          1 NXX191   0.0000
    37 N7A         20.4820   120.7330    19.7540 N.2          1 NXX191   0.0000
    38 C5A         21.1510   120.6300    18.5740 C.ar         1 NXX191   0.0000
    39 C4A         22.0430   121.7080    18.4920 C.ar         1 NXX191   0.0000
    40 C6A         21.1080   119.7040    17.5050 C.ar         1 NXX191   0.0000
    41 N6A         20.2350   118.6400    17.5560 N.pl3        1 NXX191   0.0000
    42 N1A         21.9340   119.8900    16.4490 N.ar         1 NXX191   0.0000
    43 C2A         22.8050   120.9430    16.3880 C.ar         1 NXX191   0.0000
    44 N3A         22.8700   121.8540    17.3920 N.ar         1 NXX191   0.0000
    45 H4N         20.1140   136.1656    22.1574 H            1 NXX191   0.0000
    46 H5N         19.4758   133.8825    21.6258 H            1 NXX191   0.0000
    47 H6N         20.8024   132.0601    22.5296 H            1 NXX191   0.0000
    48 H2N         23.3282   134.7252    24.3944 H            1 NXX191   0.0000
    49 H1M         23.8730   132.5892    24.3234 H            1 NXX191   0.0000
    50 H2M         21.4401   131.2995    25.1557 H            1 NXX191   0.0000
    51 H7          21.9537   133.0981    26.5296 H            1 NXX191   0.0000
    52 H3M         22.7314   129.5095    25.8114 H            1 NXX191   0.0000
    53 H9          24.5317   131.4893    26.1380 H            1 NXX191   0.0000
    54 H4M         24.2066   129.5316    23.6311 H            1 NXX191   0.0000
    55 H5M1        22.5364   128.0371    23.3599 H            1 NXX191   0.0000
    56 H5M2        22.0458   129.2042    22.3285 H            1 NXX191   0.0000
    57 H5B1        22.5285   123.8050    23.6823 H            1 NXX191   0.0000
    58 H5B2        22.4883   125.4323    23.8124 H            1 NXX191   0.0000
    59 H4B         24.0128   125.0394    22.1586 H            1 NXX191   0.0000
    60 H3B         21.9037   126.4334    21.3188 H            1 NXX191   0.0000
    61 H17         23.3964   127.3460    20.0242 H            1 NXX191   0.0000
    62 H2B         20.8879   124.7192    20.2066 H            1 NXX191   0.0000
    63 H2P         20.9198   125.2232    18.1175 H            1 NXX191   0.0000
    64 H1B         23.4170   123.7318    19.2985 H            1 NXX191   0.0000
    65 H8A         20.6286   122.1713    21.2649 H            1 NXX191   0.0000
    66 H6A1        20.2020   117.9837    16.8022 H            1 NXX191   0.0000
    67 H6A2        19.6341   118.5237    18.3468 H            1 NXX191   0.0000
    68 H2A         23.4024   121.0430    15.5923 H            1 NXX191   0.0000
@<TRIPOS>BOND
     1    1    2      ar
     2    2    3      ar
     3    2    4       1
     4    4    5      ar
     5    4    8      ar
     6    5    6      ar
     7    6    7      ar
     8    7    9      ar
     9    8    9      ar
    10    9   10       1
    11   10   11       1
    12   10   15       1
    13   11   12       1
    14   11   13       1
    15   13   14       1
    16   13   16       1
    17   15   16       1
    18   16   17       1
    19   17   18       1
    20   18   19       1
    21   19   20      ar
    22   19   21      ar
    23   19   22       1
    24   22   23       1
    25   23   24      ar
    26   23   25      ar
    27   23   26       1
    28   26   27       1
    29   27   28       1
    30   28   29       1
    31   28   34       1
    32   29   30       1
    33   29   31       1
    34   31   32       1
    35   31   33       1
    36   33   34       1
    37   33   35       1
    38   35   36       1
    39   35   39       1
    40   36   37       2
    41   37   38       1
    42   38   39      ar
    43   38   40      ar
    44   39   44      ar
    45   40   41       1
    46   40   42      ar
    47   42   43      ar
    48   43   44      ar
    49   43   68       1
    50    5   45       1
    51    6   46       1
    52    7   47       1
    53    8   48       1
    54   10   49       1
    55   11   50       1
    56   12   51       1
    57   13   52       1
    58   14   53       1
    59   16   54       1
    60   17   55       1
    61   17   56       1
    62   41   67       1
    63   41   66       1
    64   27   57       1
    65   27   58       1
    66   28   59       1
    67   29   60       1
    68   30   61       1
    69   31   62       1
    70   32   63       1
    71   33   64       1
    72   36   65       1
@<TRIPOS>SUBSTRUCTURE
     1 NXX191      1 GROUP             4 C     NXX     0 **** NXX C 191
