#    Name: 49320
#    Modification time : Tue Aug  8 22:14:45 2017

@<TRIPOS>MOLECULE
49320
   40     0     9     0     0
SMALL
NO_CHARGES


@<TRIPOS>ATOM
      1 N          95.0440   30.2100  -29.7530 N.am      1 SEL1        0.0000 
      2 O          92.9420   29.7290  -28.9320 O.2       2 ALL2        0.0000 
      3 O          97.7380   30.0950  -20.5720 O.2       2 ALL2        0.0000 
      4 CA         94.7370   31.0220  -22.1990 C.3       3 GLL5        0.0000 
      5 CA         95.3740   26.5790  -21.5260 C.3       3 GLL5        0.0000 
      6 CA         93.6240   29.0130  -26.7590 C.3       3 GLL5        0.0000 
      7 CA         91.1660   27.2550  -22.4260 C.3       3 GLL5        0.0000 
      8 CA         97.3500   29.4700  -27.1340 C.3       3 GLL5        0.0000 
      9 CA         94.9180   28.4030  -24.7710 C.3       3 GLL5        0.0000 
     10 CA         94.7620   29.3580  -27.4410 C.3       3 GLL5        0.0000 
     11 CA         93.3430   27.7680  -23.3410 C.3       3 GLL5        0.0000 
     12 CA         99.3120   30.1000  -28.3570 C.3       3 GLL5        0.0000 
     13 N          95.3550   31.9210  -31.7000 N.am      4 SEP1        0.0000 
     14 O          91.8770   30.6200  -31.3690 O.2       5 ALP2        0.0000 
     15 O          97.1110   32.7980  -20.8360 O.2       5 ALP2        0.0000 
     16 CA         93.6520   33.9580  -19.0420 C.3       6 GLP5        0.0000 
     17 CA         96.4460   33.1220  -25.2660 C.3       6 GLP5        0.0000 
     18 CA         91.0560   32.8030  -23.7550 C.3       6 GLP5        0.0000 
     19 CA         93.4810   24.2860  -24.2210 C.3       6 GLP5        0.0000 
     20 CA         93.2610   26.6040  -29.9290 C.3       6 GLP5        0.0000 
     21 CA         90.5330   30.2390  -19.8640 C.3       6 GLP5        0.0000 
     22 CA         89.3520   23.5030  -22.7820 C.3       6 GLP5        0.0000 
     23 CA         94.6640   24.6370  -26.4180 C.3       6 GLP5        0.0000 
     24 CA         94.3390   32.3810  -26.3330 C.3       6 GLP5        0.0000 
     25 CA         98.9870   26.9260  -29.3540 C.3       6 GLP5        0.0000 
     26 N          95.1995   31.0655  -30.7265 N.am      7 SEC1        0.0000 
     27 O          92.4095   30.1745  -30.1505 O.2       8 ALC2        0.0000 
     28 O          97.4245   31.4465  -20.7040 O.2       8 ALC2        0.0000 
     29 CA         94.1945   32.4900  -20.6205 C.3       9 GLC5        0.0000 
     30 CA         95.5915   32.0720  -23.7325 C.3       9 GLC5        0.0000 
     31 CA         92.8965   31.9125  -22.9770 C.3       9 GLC5        0.0000 
     32 CA         94.5090   25.7088  -23.1268 C.3       9 GLC5        0.0000 
     33 CA         93.7270   27.8948  -28.5145 C.3       9 GLC5        0.0000 
     34 CA         91.1965   28.7630  -21.1035 C.3       9 GLC5        0.0000 
     35 CA         90.1047   25.4688  -22.8970 C.3       9 GLC5        0.0000 
     36 CA         97.0998   31.2155  -25.9202 C.3       9 GLC5        0.0000 
     37 CA         94.7789   26.5814  -25.7598 C.3       9 GLC5        0.0000 
     38 CA         94.6649   30.6525  -26.2576 C.3       9 GLC5        0.0000 
     39 CA         92.7461   25.9653  -23.7698 C.3       9 GLC5        0.0000 
     40 CA         98.9131   28.2545  -28.2027 C.3       9 GLC5        0.0000 
@<TRIPOS>BOND
@<TRIPOS>SUBSTRUCTURE
     1 SEL1        1 GROUP        1 Z    SEL  0     ROOT SEL Z 0
     2 ALL2        2 GROUP        1 Z    ALL  0     **** ALL Z 1
     3 GLL5        4 GROUP        1 Z    GLL  0     **** GLL Z 4
     4 SEP1       13 GROUP        1 Z    SEP  0     **** SEP Z 7
     5 ALP2       14 GROUP        1 Z    ALP  0     **** ALP Z 8
     6 GLP5       16 GROUP        1 Z    GLP  0     **** GLP Z 11
     7 SEC1       26 GROUP        1 Z    SEC  0     **** SEC Z 14
     8 ALC2       27 GROUP        1 Z    ALC  0     **** ALC Z 15
     9 GLC5       29 GROUP        1 Z    GLC  0     **** GLC Z 18
@<TRIPOS>SET

