4u97_STU_2_ligand
  -OEChem-08111718373D

 62 69  0     1  0  0  0  0  0999 V2000
   99.7481   30.4509  -29.1856 H   0  0  0  0  0  0  0  0  0  0  0  0
   89.5536   27.5505  -23.6698 H   0  0  0  0  0  0  0  0  0  0  0  0
  101.0907   29.8772  -27.3434 H   0  0  0  0  0  0  0  0  0  0  0  0
   90.6035   26.9362  -21.6631 H   0  0  0  0  0  0  0  0  0  0  0  0
   97.3550   30.1829  -29.1217 H   0  0  0  0  0  0  0  0  0  0  0  0
   90.8421   28.3284  -25.5440 H   0  0  0  0  0  0  0  0  0  0  0  0
  100.1404   29.0767  -25.2903 H   0  0  0  0  0  0  0  0  0  0  0  0
   92.9778   27.0524  -21.3943 H   0  0  0  0  0  0  0  0  0  0  0  0
   91.7944   29.8951  -27.2959 H   0  0  0  0  0  0  0  0  0  0  0  0
   91.9479   28.3659  -27.8479 H   0  0  0  0  0  0  0  0  0  0  0  0
   97.7601   30.2523  -23.1579 H   0  0  0  0  0  0  0  0  0  0  0  0
   99.1004   29.4695  -22.6506 H   0  0  0  0  0  0  0  0  0  0  0  0
   97.7757   28.1691  -21.1949 H   0  0  0  0  0  0  0  0  0  0  0  0
   95.4345   28.9849  -20.9765 H   0  0  0  0  0  0  0  0  0  0  0  0
   98.7491   27.8880  -24.0246 H   0  0  0  0  0  0  0  0  0  0  0  0
   94.5357   26.8144  -21.0343 H   0  0  0  0  0  0  0  0  0  0  0  0
   95.2456   25.7123  -22.0080 H   0  0  0  0  0  0  0  0  0  0  0  0
   96.1282   26.4901  -20.8755 H   0  0  0  0  0  0  0  0  0  0  0  0
   97.4524   30.5629  -18.6327 H   0  0  0  0  0  0  0  0  0  0  0  0
   96.2225   29.7194  -19.2979 H   0  0  0  0  0  0  0  0  0  0  0  0
   97.6162   28.9620  -18.9099 H   0  0  0  0  0  0  0  0  0  0  0  0
   94.5287   31.6833  -22.9196 H   0  0  0  0  0  0  0  0  0  0  0  0
   93.8861   30.6253  -21.8545 H   0  0  0  0  0  0  0  0  0  0  0  0
   95.2163   31.4829  -21.4521 H   0  0  0  0  0  0  0  0  0  0  0  0
   92.3960   29.9720  -29.7338 H   0  0  0  0  0  0  0  0  0  0  0  0
   98.7311   30.1942  -20.5090 H   0  0  0  0  0  0  0  0  0  0  0  0
   99.3120   30.1000  -28.3570 C   0  0  0  0  0  0  0  0  0  0  0  0
   90.5490   27.6140  -23.5980 C   0  0  0  0  0  0  0  0  0  0  0  0
  100.0990   29.7720  -27.2700 C   0  0  0  0  0  0  0  0  0  0  0  0
   91.1660   27.2550  -22.4260 C   0  0  0  0  0  0  0  0  0  0  0  0
   97.9200   29.9540  -28.3290 C   0  0  0  0  0  0  0  0  0  0  0  0
   91.2870   28.0650  -24.6880 C   0  0  0  0  0  0  0  0  0  0  0  0
   99.5590   29.2990  -26.0730 C   0  0  0  0  0  0  0  0  0  0  0  0
   92.5540   27.3190  -22.2600 C   0  0  0  0  0  0  0  0  0  0  0  0
   97.3500   29.4700  -27.1340 C   0  0  0  0  0  0  0  0  0  0  0  0
   92.6910   28.1360  -24.5370 C   0  0  0  0  0  0  0  0  0  0  0  0
   96.0080   29.2240  -26.7690 C   0  0  0  0  0  0  0  0  0  0  0  0
   93.6780   28.5490  -25.4490 C   0  0  0  0  0  0  0  0  0  0  0  0
   94.7620   29.3580  -27.4410 C   0  0  0  0  0  0  0  0  0  0  0  0
   93.6240   29.0130  -26.7590 C   0  0  0  0  0  0  0  0  0  0  0  0
   98.1570   29.1480  -26.0150 C   0  0  0  0  0  0  0  0  0  0  0  0
   93.3430   27.7680  -23.3410 C   0  0  0  0  0  0  0  0  0  0  0  0
   96.0610   28.7480  -25.4150 C   0  0  0  0  0  0  0  0  0  0  0  0
   94.9180   28.4030  -24.7710 C   0  0  0  0  0  0  0  0  0  0  0  0
   94.3420   29.8220  -28.8380 C   0  0  0  0  0  0  0  0  0  0  0  0
   92.4260   29.2310  -27.6960 C   0  0  2  0  0  0  0  0  0  0  0  0
   98.1170   29.3850  -22.8110 C   0  0  1  0  0  0  0  0  0  0  0  0
   97.4360   29.0460  -21.5350 C   0  0  2  0  0  0  0  0  0  0  0  0
   95.9650   28.9410  -21.8230 C   0  0  2  0  0  0  0  0  0  0  0  0
   97.8700   28.3140  -23.8110 C   0  0  2  0  0  0  0  0  0  0  0  0
   95.7000   27.6840  -22.5390 C   0  0  1  0  0  0  0  0  0  0  0  0
   95.3740   26.5790  -21.5260 C   0  0  0  0  0  0  0  0  0  0  0  0
   97.2170   29.8130  -19.2510 C   0  0  0  0  0  0  0  0  0  0  0  0
   94.7370   31.0220  -22.1990 C   0  0  0  0  0  0  0  0  0  0  0  0
   97.2990   28.7330  -25.0100 N   0  0  0  0  0  0  0  0  0  0  0  0
   94.7020   27.9410  -23.5220 N   0  0  0  0  0  0  0  0  0  0  0  0
   92.9420   29.7290  -28.9320 N   0  0  0  0  0  0  0  0  0  0  0  0
   97.7380   30.0950  -20.5720 N   0  3  2  0  0  0  0  0  0  0  0  0
   95.0440   30.2100  -29.7530 O   0  0  0  0  0  0  0  0  0  0  0  0
   96.9650   27.2400  -23.2200 O   0  0  0  0  0  0  0  0  0  0  0  0
   95.5660   29.9850  -22.7290 O   0  0  0  0  0  0  0  0  0  0  0  0
   97.3373   30.9517  -20.8970 H   0  0  0  0  0  0  0  0  0  0  0  0
  1 27  1  0  0  0  0
  2 28  1  0  0  0  0
  3 29  1  0  0  0  0
  4 30  1  0  0  0  0
  5 31  1  0  0  0  0
  6 32  1  0  0  0  0
  7 33  1  0  0  0  0
  8 34  1  0  0  0  0
  9 46  1  0  0  0  0
 10 46  1  0  0  0  0
 11 47  1  0  0  0  0
 12 47  1  0  0  0  0
 13 48  1  0  0  0  0
 14 49  1  0  0  0  0
 15 50  1  0  0  0  0
 16 52  1  0  0  0  0
 17 52  1  0  0  0  0
 18 52  1  0  0  0  0
 19 53  1  0  0  0  0
 20 53  1  0  0  0  0
 21 53  1  0  0  0  0
 22 54  1  0  0  0  0
 23 54  1  0  0  0  0
 24 54  1  0  0  0  0
 25 57  1  0  0  0  0
 26 58  1  0  0  0  0
 27 29  1  0  0  0  0
 27 31  2  0  0  0  0
 28 30  1  0  0  0  0
 28 32  2  0  0  0  0
 29 33  2  0  0  0  0
 30 34  2  0  0  0  0
 31 35  1  0  0  0  0
 32 36  1  0  0  0  0
 33 41  1  0  0  0  0
 34 42  1  0  0  0  0
 35 37  1  0  0  0  0
 35 41  2  0  0  0  0
 36 38  1  0  0  0  0
 36 42  2  0  0  0  0
 37 39  2  0  0  0  0
 37 43  1  0  0  0  0
 38 40  2  0  0  0  0
 38 44  1  0  0  0  0
 39 40  1  0  0  0  0
 39 45  1  0  0  0  0
 40 46  1  0  0  0  0
 41 55  1  0  0  0  0
 42 56  1  0  0  0  0
 43 44  2  0  0  0  0
 43 55  1  0  0  0  0
 44 56  1  0  0  0  0
 45 57  1  0  0  0  0
 45 59  2  0  0  0  0
 46 57  1  0  0  0  0
 47 48  1  0  0  0  0
 47 50  1  0  0  0  0
 48 49  1  0  0  0  0
 48 58  1  0  0  0  0
 49 51  1  0  0  0  0
 49 61  1  0  0  0  0
 50 55  1  0  0  0  0
 50 60  1  0  0  0  0
 51 52  1  0  0  0  0
 51 56  1  0  0  0  0
 51 60  1  0  0  0  0
 53 58  1  0  0  0  0
 54 61  1  0  0  0  0
 58 62  1  0  0  0  0
M  CHG  1  58   1
M  END
> <scpdb_id>
4u97_2

$$$$
