@<TRIPOS>MOLECULE
4u97_STU_2_ligand
   62    69     1     0     0
SMALL
NO_CHARGES


@<TRIPOS>ATOM
     1 O4          96.9650    27.2400   -23.2200 O.3          1 STU501   0.0000
     2 C25         97.8700    28.3140   -23.8110 C.3          1 STU501   0.0000
     3 C24         98.1170    29.3850   -22.8110 C.3          1 STU501   0.0000
     4 C23         97.4360    29.0460   -21.5350 C.3          1 STU501   0.0000
     5 C22         95.9650    28.9410   -21.8230 C.3          1 STU501   0.0000
     6 C21         95.7000    27.6840   -22.5390 C.3          1 STU501   0.0000
     7 C26         95.3740    26.5790   -21.5260 C.3          1 STU501   0.0000
     8 N2          94.7020    27.9410   -23.5220 N.pl3        1 STU501   0.0000
     9 C18         94.9180    28.4030   -24.7710 C.ar         1 STU501   0.0000
    10 C19         96.0610    28.7480   -25.4150 C.ar         1 STU501   0.0000
    11 C6          96.0080    29.2240   -26.7690 C.ar         1 STU501   0.0000
    12 C7          94.7620    29.3580   -27.4410 C.ar         1 STU501   0.0000
    13 C10         93.6240    29.0130   -26.7590 C.ar         1 STU501   0.0000
    14 C11         93.6780    28.5490   -25.4490 C.ar         1 STU501   0.0000
    15 C12         92.6910    28.1360   -24.5370 C.ar         1 STU501   0.0000
    16 C17         93.3430    27.7680   -23.3410 C.ar         1 STU501   0.0000
    17 C16         92.5540    27.3190   -22.2600 C.ar         1 STU501   0.0000
    18 C15         91.1660    27.2550   -22.4260 C.ar         1 STU501   0.0000
    19 C14         90.5490    27.6140   -23.5980 C.ar         1 STU501   0.0000
    20 C13         91.2870    28.0650   -24.6880 C.ar         1 STU501   0.0000
    21 C9          92.4260    29.2310   -27.6960 C.3          1 STU501   0.0000
    22 N1          92.9420    29.7290   -28.9320 N.am         1 STU501   0.0000
    23 C8          94.3420    29.8220   -28.8380 C.2          1 STU501   0.0000
    24 O5          95.0440    30.2100   -29.7530 O.2          1 STU501   0.0000
    25 C5          97.3500    29.4700   -27.1340 C.ar         1 STU501   0.0000
    26 C20         98.1570    29.1480   -26.0150 C.ar         1 STU501   0.0000
    27 C1          99.5590    29.2990   -26.0730 C.ar         1 STU501   0.0000
    28 C2         100.0990    29.7720   -27.2700 C.ar         1 STU501   0.0000
    29 C3          99.3120    30.1000   -28.3570 C.ar         1 STU501   0.0000
    30 C4          97.9200    29.9540   -28.3290 C.ar         1 STU501   0.0000
    31 N3          97.2990    28.7330   -25.0100 N.pl3        1 STU501   0.0000
    32 O6          95.5660    29.9850   -22.7290 O.3          1 STU501   0.0000
    33 C27         94.7370    31.0220   -22.1990 C.3          1 STU501   0.0000
    34 N4          97.7380    30.0950   -20.5720 N.4          1 STU501   1.0000
    35 C28         97.2170    29.8130   -19.2510 C.3          1 STU501   0.0000
    36 H1          98.7491    27.8880   -24.0246 H            1 STU501   0.0000
    37 H2          97.7601    30.2523   -23.1579 H            1 STU501   0.0000
    38 H3          99.1004    29.4695   -22.6506 H            1 STU501   0.0000
    39 H4          97.7757    28.1691   -21.1949 H            1 STU501   0.0000
    40 H5          95.4345    28.9849   -20.9765 H            1 STU501   0.0000
    41 H6          94.5357    26.8144   -21.0343 H            1 STU501   0.0000
    42 H7          95.2456    25.7123   -22.0080 H            1 STU501   0.0000
    43 H8          96.1282    26.4901   -20.8755 H            1 STU501   0.0000
    44 H9          92.9778    27.0524   -21.3943 H            1 STU501   0.0000
    45 H10         90.6035    26.9362   -21.6631 H            1 STU501   0.0000
    46 H11         89.5536    27.5505   -23.6698 H            1 STU501   0.0000
    47 H12         90.8421    28.3284   -25.5440 H            1 STU501   0.0000
    48 H13         91.7944    29.8951   -27.2959 H            1 STU501   0.0000
    49 H14         91.9479    28.3659   -27.8479 H            1 STU501   0.0000
    50 H15         92.3960    29.9720   -29.7338 H            1 STU501   0.0000
    51 H16        100.1404    29.0767   -25.2903 H            1 STU501   0.0000
    52 H17        101.0907    29.8772   -27.3434 H            1 STU501   0.0000
    53 H18         99.7481    30.4509   -29.1856 H            1 STU501   0.0000
    54 H19         97.3550    30.1829   -29.1217 H            1 STU501   0.0000
    55 H20         94.5287    31.6833   -22.9196 H            1 STU501   0.0000
    56 H21         93.8861    30.6253   -21.8545 H            1 STU501   0.0000
    57 H22         95.2163    31.4829   -21.4521 H            1 STU501   0.0000
    58 H23         97.3374    30.9517   -20.8970 H            1 STU501   0.0000
    59 H24         97.4524    30.5629   -18.6327 H            1 STU501   0.0000
    60 H25         96.2225    29.7194   -19.2979 H            1 STU501   0.0000
    61 H26         97.6162    28.9620   -18.9099 H            1 STU501   0.0000
    62 H27         98.7311    30.1942   -20.5090 H            1 STU501   0.0000
@<TRIPOS>BOND
     1    1    2       1
     2    1    6       1
     3    2    3       1
     4    2   31       1
     5    3    4       1
     6    4    5       1
     7    4   34       1
     8    5    6       1
     9    5   32       1
    10    6    7       1
    11    6    8       1
    12    8    9       1
    13    8   16       1
    14    9   10      ar
    15    9   14      ar
    16   10   11      ar
    17   10   31       1
    18   11   12      ar
    19   11   25       1
    20   12   13      ar
    21   12   23       1
    22   13   14      ar
    23   13   21       1
    24   14   15       1
    25   15   16      ar
    26   15   20      ar
    27   16   17      ar
    28   17   18      ar
    29   18   19      ar
    30   19   20      ar
    31   21   22       1
    32   22   23      am
    33   23   24       2
    34   25   26      ar
    35   25   30      ar
    36   26   27      ar
    37   26   31       1
    38   27   28      ar
    39   28   29      ar
    40   29   30      ar
    41   32   33       1
    42   34   35       1
    43    2   36       1
    44    3   37       1
    45    3   38       1
    46    4   39       1
    47    5   40       1
    48    7   41       1
    49    7   42       1
    50    7   43       1
    51   17   44       1
    52   18   45       1
    53   19   46       1
    54   20   47       1
    55   21   48       1
    56   21   49       1
    57   22   50       1
    58   27   51       1
    59   28   52       1
    60   29   53       1
    61   30   54       1
    62   33   55       1
    63   33   56       1
    64   33   57       1
    65   34   58       1
    66   35   59       1
    67   35   60       1
    68   35   61       1
    69   34   62       1
@<TRIPOS>SUBSTRUCTURE
     1 STU501      1 GROUP             4 B     STU     0 **** STU B 501
